Compound_19-7M8O
                    3D
 Structure written by MMmdl.
 55 59  0  0  1  0            999 V2000
    8.2039   -1.2840   21.5937 C   0  0  0  0  0  0
    4.7356   -8.7364   27.3951 F   0  0  0  0  0  0
    8.7848   -0.7165   20.4808 N   0  0  0  0  0  0
    8.7163   -1.3891   19.2510 C   0  0  0  0  0  0
    7.5700   -1.2885   18.4554 C   0  0  0  0  0  0
   11.1630    4.5592   20.6803 N   0  0  0  0  0  0
   12.4764    5.9909   21.8868 O   0  0  0  0  0  0
    8.4268   -2.8027   16.9163 C   0  0  0  0  0  0
    7.1623   -3.9604   26.1658 O   0  0  0  0  0  0
    9.6092   -2.9487   17.6424 C   0  0  0  0  0  0
    9.7590   -2.2215   18.8249 C   0  0  0  0  0  0
    9.4334    0.4983   20.5308 C   0  0  0  0  0  0
    9.5392    1.2899   21.6238 C   0  0  0  0  0  0
   10.2648    2.5725   21.6434 C   0  0  0  0  0  0
   10.3984    3.4466   20.4645 C   0  0  0  0  0  0
   10.8093    3.0377   22.7963 C   0  0  0  0  0  0
   11.7729    4.9866   21.8294 C   0  0  0  0  0  0
    8.8823    0.7507   22.8123 C   0  0  0  0  0  0
    8.2578   -0.4608   22.8168 C   0  0  0  0  0  0
    7.5657   -0.9256   24.0513 C   0  0  0  0  0  0
    6.7765   -0.0408   24.7962 C   0  0  0  0  0  0
    6.1596   -0.4485   25.9752 C   0  0  0  0  0  0
    6.3153   -1.7578   26.4265 C   0  0  0  0  0  0
    7.0945   -5.0161   25.2081 C   0  0  0  0  0  0
    7.0877   -6.3394   25.9504 C   0  0  0  0  0  0
    8.2993   -6.9663   26.2566 C   0  0  0  0  0  0
    8.3117   -8.1596   26.9775 C   0  0  0  0  0  0
    7.1101   -8.7418   27.3800 C   0  0  0  0  0  0
    5.8833   -6.9328   26.3464 C   0  0  0  0  0  0
    7.0704   -2.6708   25.6909 C   0  0  0  0  0  0
    5.8971   -8.1387   27.0495 C   0  0  0  0  0  0
    7.7099   -2.2404   24.5213 C   0  0  0  0  0  0
    7.4206   -1.9814   17.2995 N   0  0  0  0  0  0
   11.5277    4.1915   22.9070 N   0  0  0  0  0  0
    7.6678   -2.3994   21.5677 O   0  0  0  0  0  0
    9.8737    3.2565   19.3691 O   0  0  0  0  0  0
    5.2069    0.6734   26.8708 Cl  0  0  0  0  0  0
    6.7398   -0.6645   18.7545 H   0  0  0  0  0  0
   11.2873    5.1648   19.8823 H   0  0  0  0  0  0
    8.2628   -3.3638   16.0111 H   0  0  0  0  0  0
   10.3844   -3.6185   17.3014 H   0  0  0  0  0  0
   10.6571   -2.3283   19.4159 H   0  0  0  0  0  0
    9.8751    0.7581   19.5789 H   0  0  0  0  0  0
   10.7796    2.5216   23.7449 H   0  0  0  0  0  0
    8.8761    1.3434   23.7158 H   0  0  0  0  0  0
    6.6354    0.9753   24.4585 H   0  0  0  0  0  0
    5.8286   -2.0740   27.3365 H   0  0  0  0  0  0
    7.9492   -5.0002   24.5301 H   0  0  0  0  0  0
    6.1965   -4.9317   24.5927 H   0  0  0  0  0  0
    9.2362   -6.5198   25.9545 H   0  0  0  0  0  0
    9.2510   -8.6321   27.2247 H   0  0  0  0  0  0
    7.1167   -9.6696   27.9330 H   0  0  0  0  0  0
    4.9388   -6.4662   26.1081 H   0  0  0  0  0  0
    8.3349   -2.9282   23.9729 H   0  0  0  0  0  0
   11.9484    4.4734   23.7813 H   0  0  0  0  0  0
  1  3  1  0  0  0
  1 19  1  0  0  0
  1 35  2  0  0  0
  2 31  1  0  0  0
  3  4  1  0  0  0
  3 12  1  0  0  0
  4  5  1  0  0  0
  4 11  2  0  0  0
  5 33  2  0  0  0
  5 38  1  0  0  0
  6 15  1  0  0  0
  6 17  1  0  0  0
  6 39  1  0  0  0
  7 17  2  0  0  0
  8 10  2  0  0  0
  8 33  1  0  0  0
  8 40  1  0  0  0
  9 24  1  0  0  0
  9 30  1  0  0  0
 10 11  1  0  0  0
 10 41  1  0  0  0
 11 42  1  0  0  0
 12 13  2  0  0  0
 12 43  1  0  0  0
 13 14  1  0  0  0
 13 18  1  0  0  0
 14 15  1  0  0  0
 14 16  2  0  0  0
 15 36  2  0  0  0
 16 34  1  0  0  0
 16 44  1  0  0  0
 17 34  1  0  0  0
 18 19  2  0  0  0
 18 45  1  0  0  0
 19 20  1  0  0  0
 20 21  1  0  0  0
 20 32  2  0  0  0
 21 22  2  0  0  0
 21 46  1  0  0  0
 22 23  1  0  0  0
 22 37  1  0  0  0
 23 30  2  0  0  0
 23 47  1  0  0  0
 24 25  1  0  0  0
 24 48  1  0  0  0
 24 49  1  0  0  0
 25 26  1  0  0  0
 25 29  2  0  0  0
 26 27  2  0  0  0
 26 50  1  0  0  0
 27 28  1  0  0  0
 27 51  1  0  0  0
 28 31  2  0  0  0
 28 52  1  0  0  0
 29 31  1  0  0  0
 29 53  1  0  0  0
 30 32  1  0  0  0
 32 54  1  0  0  0
 34 55  1  0  0  0
M  END
> <s_m_entry_id>
1545

> <s_m_entry_name>
7m8o.1_ligand

> <s_m_Source_Path>
/home/iakrani/Data_2/Ifigeneia/Mpro_water_data/Perampanel_analogue_structures

> <s_m_Source_File>
7m8o_minimized.mae

> <i_m_Source_File_Index>
1

> <s_pdb_PDB_TITLE>
CRYSTAL STRUCTURE OF THE SARS-COV-2(2019-NCOV) MAIN PROTEASE IN COMPLEX WITH COMPOUND 19

> <s_pdb_PDB_ID>
7M8O

> <r_pdb_PDB_CRYST1_a>
67.841

> <r_pdb_PDB_CRYST1_b>
101.922

> <r_pdb_PDB_CRYST1_c>
103.797

> <r_pdb_PDB_CRYST1_alpha>
90

> <r_pdb_PDB_CRYST1_beta>
90

> <r_pdb_PDB_CRYST1_gamma>
90

> <s_pdb_PDB_CRYST1_Space_Group>
P 21 21 21

> <i_pdb_PDB_CRYST1_z>
8

> <s_pdb_PDB_CLASSIFICATION>
VIRAL PROTEIN, HYDROLASE

> <s_pdb_PDB_DEPOSITION_DATE>
30-MAR-21

> <s_pdb_PDB_format_version>
3.30

> <r_pdb_PDB_R>
0.210999995470047

> <r_pdb_PDB_Rfree>
0.287999987602234

> <r_pdb_PDB_RESOLUTION>
2.44

> <s_pdb_PDB_EXPDTA>
X-RAY DIFFRACTION

> <r_pdb_PDB_EXPDTA_TEMPERATURE>
100

> <s_pdb_PDB_REMARK_350_Biomolecule_1_Chains>
A, B

> <s_pdb_PDB_REMARK_350_Biomolecule_1_Transformation_1>
1.000000 0.000000 0.000000   0.000000;0.000000 1.000000 0.000000   0.000000;0.000000 0.000000 1.000000   0.000000

> <s_ppw_entry_id_backup>
85

> <b_ppw_prepared>
1

> <s_ppw_prepared_with_version>
2018-1

> <b_ppw_assigned_bond_orders>
1

> <b_ppw_added_hydrogens>
1

> <b_ppw_treated_metals>
1

> <b_ppw_created_disulfur>
1

> <b_ppw_deleted_far_waters>
1

> <b_ppw_ran_protassign>
1

> <b_ppw_removed_non_hbond_waters>
1

> <r_i_Potential_Energy-OPLS3>
-2359.75731094127

> <r_i_RMS_Derivative-OPLS3>
0.0986366859996556

> <r_i_Max_Derivative-OPLS3>
2.49043229181392

> <r_i_Stretch_Energy-OPLS3>
247.222517457285

> <r_i_Bend_Energy-OPLS3>
1125.75294840495

> <r_i_LJ-14_Energy-OPLS3>
2732.76707497916

> <r_i_El-14_Energy-OPLS3>
1133.88134770475

> <r_i_Van_der_Waals_Energy-OPLS3>
-5448.7684704524

> <r_i_Electrostatic_Energy-OPLS3>
-3238.39258070687

> <r_i_Dihedral_Energy-OPLS3>
917.232228687129

> <r_i_target_temperature>
298

> <b_ppw_ran_impref>
1

> <s_m_subgroup_title>
Crystallographic_analogues

> <s_m_subgroupid>
Crystallographic_analogues

> <b_m_subgroup_collapsed>
0

$$$$
