Compound_11-7M8M
                    3D
 Structure written by MMmdl.
 51 54  0  0  1  0            999 V2000
   11.0932    4.3507   20.6681 N   0  0  0  0  0  0
    8.1135   -0.5898   22.8147 C   0  0  0  0  0  0
    8.7325   -0.9207   20.5030 N   0  0  0  0  0  0
    6.5533   -0.0019   24.6912 C   0  0  0  0  0  0
    5.7781   -0.3350   25.7986 C   0  0  0  0  0  0
    5.7324   -1.6522   26.2433 C   0  0  0  0  0  0
    6.7685   -5.0248   25.2685 C   0  0  0  0  0  0
    8.1059   -1.4522   21.6100 C   0  0  0  0  0  0
    4.7759   -6.5007   25.9420 C   0  0  0  0  0  0
    7.2669   -2.2914   24.5004 C   0  0  0  0  0  0
    8.7780    0.6011   22.8063 C   0  0  0  0  0  0
    9.4860    1.0920   21.6277 C   0  0  0  0  0  0
   10.2454    2.3480   21.6305 C   0  0  0  0  0  0
   10.2796    3.2686   20.4825 C   0  0  0  0  0  0
   10.9107    2.7432   22.7429 C   0  0  0  0  0  0
   11.8314    4.7082   21.7652 C   0  0  0  0  0  0
    9.3939    0.2860   20.5471 C   0  0  0  0  0  0
    8.7526   -1.6374   19.2948 C   0  0  0  0  0  0
    9.8342   -2.4684   18.9717 C   0  0  0  0  0  0
    9.8039   -3.1999   17.7819 C   0  0  0  0  0  0
    8.6951   -3.0655   16.9464 C   0  0  0  0  0  0
    7.6818   -1.5534   18.3976 C   0  0  0  0  0  0
    7.3043   -0.9728   24.0124 C   0  0  0  0  0  0
    6.4624   -2.6480   25.5952 C   0  0  0  0  0  0
    6.3031   -6.3530   25.8860 C   0  0  0  0  0  0
   11.6749    3.8700   22.8278 N   0  0  0  0  0  0
    7.6485   -2.2528   17.2355 N   0  0  0  0  0  0
    7.5705   -2.5672   21.5865 O   0  0  0  0  0  0
    6.3298   -3.9351   26.0791 O   0  0  0  0  0  0
    9.6387    3.1332   19.4407 O   0  0  0  0  0  0
   12.5661    5.6902   21.7947 O   0  0  0  0  0  0
    4.8684    0.8845   26.6087 Cl  0  0  0  0  0  0
   11.1535    4.9914   19.8896 H   0  0  0  0  0  0
    6.5462    1.0223   24.3468 H   0  0  0  0  0  0
    5.1070   -1.9093   27.0837 H   0  0  0  0  0  0
    6.3714   -4.9366   24.2555 H   0  0  0  0  0  0
    7.8576   -5.0169   25.1986 H   0  0  0  0  0  0
    4.5016   -7.4713   26.3545 H   0  0  0  0  0  0
    4.3246   -5.7312   26.5712 H   0  0  0  0  0  0
    4.3339   -6.4237   24.9484 H   0  0  0  0  0  0
    7.8607   -3.0468   24.0091 H   0  0  0  0  0  0
    8.7472    1.2350   23.6823 H   0  0  0  0  0  0
   10.9513    2.1801   23.6649 H   0  0  0  0  0  0
    9.8698    0.5282   19.6069 H   0  0  0  0  0  0
   10.6770   -2.5629   19.6402 H   0  0  0  0  0  0
   10.6160   -3.8602   17.5160 H   0  0  0  0  0  0
    8.6329   -3.6196   16.0219 H   0  0  0  0  0  0
    6.8245   -0.9285   18.6078 H   0  0  0  0  0  0
    6.7149   -6.4522   26.8911 H   0  0  0  0  0  0
    6.7157   -7.1790   25.3033 H   0  0  0  0  0  0
   12.1923    4.1002   23.6636 H   0  0  0  0  0  0
  1 14  1  0  0  0
  1 16  1  0  0  0
  1 33  1  0  0  0
  2  8  1  0  0  0
  2 11  2  0  0  0
  2 23  1  0  0  0
  3  8  1  0  0  0
  3 17  1  0  0  0
  3 18  1  0  0  0
  4  5  1  0  0  0
  4 23  2  0  0  0
  4 34  1  0  0  0
  5  6  2  0  0  0
  5 32  1  0  0  0
  6 24  1  0  0  0
  6 35  1  0  0  0
  7 25  1  0  0  0
  7 29  1  0  0  0
  7 36  1  0  0  0
  7 37  1  0  0  0
  8 28  2  0  0  0
  9 25  1  0  0  0
  9 38  1  0  0  0
  9 39  1  0  0  0
  9 40  1  0  0  0
 10 23  1  0  0  0
 10 24  2  0  0  0
 10 41  1  0  0  0
 11 12  1  0  0  0
 11 42  1  0  0  0
 12 13  1  0  0  0
 12 17  2  0  0  0
 13 14  1  0  0  0
 13 15  2  0  0  0
 14 30  2  0  0  0
 15 26  1  0  0  0
 15 43  1  0  0  0
 16 26  1  0  0  0
 16 31  2  0  0  0
 17 44  1  0  0  0
 18 19  1  0  0  0
 18 22  2  0  0  0
 19 20  2  0  0  0
 19 45  1  0  0  0
 20 21  1  0  0  0
 20 46  1  0  0  0
 21 27  2  0  0  0
 21 47  1  0  0  0
 22 27  1  0  0  0
 22 48  1  0  0  0
 24 29  1  0  0  0
 25 49  1  0  0  0
 25 50  1  0  0  0
 26 51  1  0  0  0
M  END
> <s_m_entry_id>
1540

> <s_m_entry_name>
7m8m.1_ligand

> <s_m_Source_Path>
/home/iakrani/Data_2/Ifigeneia/Mpro_water_data/Perampanel_analogue_structures

> <s_m_Source_File>
7m8m_minimized.mae

> <i_m_Source_File_Index>
1

> <s_pdb_PDB_TITLE>
CRYSTAL STRUCTURE OF THE SARS-COV-2(2019-NCOV) MAIN PROTEASE IN COMPLEX WITH COMPOUND 11

> <s_pdb_PDB_ID>
7M8M

> <r_pdb_PDB_CRYST1_a>
67.79

> <r_pdb_PDB_CRYST1_b>
100.292

> <r_pdb_PDB_CRYST1_c>
103.036

> <r_pdb_PDB_CRYST1_alpha>
90

> <r_pdb_PDB_CRYST1_beta>
90

> <r_pdb_PDB_CRYST1_gamma>
90

> <s_pdb_PDB_CRYST1_Space_Group>
P 21 21 21

> <i_pdb_PDB_CRYST1_z>
8

> <s_pdb_PDB_CLASSIFICATION>
VIRAL PROTEIN, HYDROLASE

> <s_pdb_PDB_DEPOSITION_DATE>
30-MAR-21

> <s_pdb_PDB_format_version>
3.30

> <r_pdb_PDB_R>
0.206000000238419

> <r_pdb_PDB_Rfree>
0.233999997377396

> <r_pdb_PDB_RESOLUTION>
1.78

> <s_pdb_PDB_EXPDTA>
X-RAY DIFFRACTION

> <r_pdb_PDB_EXPDTA_TEMPERATURE>
100

> <s_pdb_PDB_REMARK_350_Biomolecule_1_Chains>
A, B

> <s_pdb_PDB_REMARK_350_Biomolecule_1_Transformation_1>
1.000000 0.000000 0.000000   0.000000;0.000000 1.000000 0.000000   0.000000;0.000000 0.000000 1.000000   0.000000

> <s_ppw_entry_id_backup>
66

> <b_ppw_prepared>
1

> <s_ppw_prepared_with_version>
2018-1

> <b_ppw_assigned_bond_orders>
1

> <b_ppw_added_hydrogens>
1

> <b_ppw_treated_metals>
1

> <b_ppw_created_disulfur>
1

> <b_ppw_deleted_far_waters>
1

> <b_ppw_ran_protassign>
1

> <b_ppw_removed_non_hbond_waters>
1

> <r_i_Potential_Energy-OPLS3>
-2904.95690377161

> <r_i_RMS_Derivative-OPLS3>
0.117003802455195

> <r_i_Max_Derivative-OPLS3>
4.39266157341519

> <r_i_Stretch_Energy-OPLS3>
267.32811730659

> <r_i_Bend_Energy-OPLS3>
1152.90276963944

> <r_i_LJ-14_Energy-OPLS3>
2763.75456545984

> <r_i_El-14_Energy-OPLS3>
1084.19200574608

> <r_i_Van_der_Waals_Energy-OPLS3>
-5785.29081944254

> <r_i_Electrostatic_Energy-OPLS3>
-3335.3880436803

> <r_i_Dihedral_Energy-OPLS3>
882.665940891688

> <r_i_target_temperature>
298

> <b_ppw_ran_impref>
1

> <s_m_subgroup_title>
Crystallographic_analogues

> <s_m_subgroupid>
Crystallographic_analogues

> <b_m_subgroup_collapsed>
0

$$$$
