Compound_5-7L11
                    3D
 Structure written by MMmdl.
 52 55  0  0  1  0            999 V2000
    9.4848    0.5198   20.9620 C   0  0  0  0  0  0
    9.6121    1.2348   22.1025 C   0  0  0  0  0  0
   10.5178    2.4135   22.2549 C   0  0  0  0  0  0
   10.7029    3.4265   21.2826 C   0  0  0  0  0  0
    9.8949    3.5147   20.0717 C   0  0  0  0  0  0
   11.6423    4.4421   21.4939 C   0  0  0  0  0  0
    7.4177   -2.2424   21.7534 O   0  0  0  0  0  0
    8.0312   -1.1760   21.8644 C   0  0  0  0  0  0
    8.7404   -1.2765   19.5614 C   0  0  0  0  0  0
    7.5905   -1.3315   18.7632 C   0  0  0  0  0  0
    8.6643   -2.6466   17.1760 C   0  0  0  0  0  0
    9.8522   -2.6414   17.9081 C   0  0  0  0  0  0
    9.8934   -1.9347   19.1122 C   0  0  0  0  0  0
    6.2717   -3.9301   26.1689 O   0  0  0  0  0  0
   12.3895    4.4836   22.6655 C   0  0  0  0  0  0
   12.1826    3.5265   23.6516 C   0  0  0  0  0  0
   11.2577    2.5067   23.4454 C   0  0  0  0  0  0
    8.8414    0.7158   23.2251 C   0  0  0  0  0  0
    8.0895   -0.4148   23.1332 C   0  0  0  0  0  0
    7.2831   -0.8516   24.3125 C   0  0  0  0  0  0
    6.6292    0.0952   25.1149 C   0  0  0  0  0  0
    5.9138   -0.2916   26.2438 C   0  0  0  0  0  0
    5.8267   -1.6390   26.5815 C   0  0  0  0  0  0
    6.4437   -2.6116   25.7958 C   0  0  0  0  0  0
    6.5860   -4.9563   25.2286 C   0  0  0  0  0  0
    6.1083   -6.3170   25.7540 C   0  0  0  0  0  0
    4.5899   -6.3847   25.9617 C   0  0  0  0  0  0
    7.1913   -2.2025   24.6823 C   0  0  0  0  0  0
    8.7225   -0.6184   20.8088 N   0  0  0  0  0  0
    7.5454   -1.9959   17.5806 N   0  0  0  0  0  0
    9.2611    3.5790   19.1079 N   0  0  0  0  0  0
    5.1387    0.9006   27.2201 Cl  0  0  0  0  0  0
   10.0207    0.7718   20.0567 H   0  0  0  0  0  0
   11.7992    5.2130   20.7543 H   0  0  0  0  0  0
    6.6736   -0.8537   19.0799 H   0  0  0  0  0  0
    8.5981   -3.1813   16.2401 H   0  0  0  0  0  0
   10.7229   -3.1717   17.5488 H   0  0  0  0  0  0
   10.8004   -1.9218   19.6987 H   0  0  0  0  0  0
   13.1113    5.2730   22.8197 H   0  0  0  0  0  0
   12.7490    3.5677   24.5700 H   0  0  0  0  0  0
   11.1472    1.7623   24.2188 H   0  0  0  0  0  0
    8.8535    1.2731   24.1518 H   0  0  0  0  0  0
    6.6716    1.1460   24.8651 H   0  0  0  0  0  0
    5.2506   -1.9354   27.4415 H   0  0  0  0  0  0
    7.6636   -4.9919   25.0617 H   0  0  0  0  0  0
    6.1093   -4.7512   24.2683 H   0  0  0  0  0  0
    6.6141   -6.5488   26.6920 H   0  0  0  0  0  0
    6.4046   -7.0941   25.0470 H   0  0  0  0  0  0
    4.2829   -7.3861   26.2629 H   0  0  0  0  0  0
    4.2699   -5.6866   26.7362 H   0  0  0  0  0  0
    4.0549   -6.1325   25.0465 H   0  0  0  0  0  0
    7.7152   -2.9417   24.0963 H   0  0  0  0  0  0
  1  2  2  0  0  0
  1 29  1  0  0  0
  1 33  1  0  0  0
  2  3  1  0  0  0
  2 18  1  0  0  0
  3  4  1  0  0  0
  3 17  2  0  0  0
  4  5  1  0  0  0
  4  6  2  0  0  0
  5 31  3  0  0  0
  6 15  1  0  0  0
  6 34  1  0  0  0
  7  8  2  0  0  0
  8 19  1  0  0  0
  8 29  1  0  0  0
  9 10  1  0  0  0
  9 13  2  0  0  0
  9 29  1  0  0  0
 10 30  2  0  0  0
 10 35  1  0  0  0
 11 12  2  0  0  0
 11 30  1  0  0  0
 11 36  1  0  0  0
 12 13  1  0  0  0
 12 37  1  0  0  0
 13 38  1  0  0  0
 14 24  1  0  0  0
 14 25  1  0  0  0
 15 16  2  0  0  0
 15 39  1  0  0  0
 16 17  1  0  0  0
 16 40  1  0  0  0
 17 41  1  0  0  0
 18 19  2  0  0  0
 18 42  1  0  0  0
 19 20  1  0  0  0
 20 21  1  0  0  0
 20 28  2  0  0  0
 21 22  2  0  0  0
 21 43  1  0  0  0
 22 23  1  0  0  0
 22 32  1  0  0  0
 23 24  2  0  0  0
 23 44  1  0  0  0
 24 28  1  0  0  0
 25 26  1  0  0  0
 25 45  1  0  0  0
 25 46  1  0  0  0
 26 27  1  0  0  0
 26 47  1  0  0  0
 26 48  1  0  0  0
 27 49  1  0  0  0
 27 50  1  0  0  0
 27 51  1  0  0  0
 28 52  1  0  0  0
M  END
> <s_m_entry_id>
1529

> <s_m_entry_name>
7l11.1_ligand

> <s_m_Source_Path>
/home/iakrani/Data_2/Ifigeneia/Mpro_water_data/Perampanel_analogue_structures

> <s_m_Source_File>
7l11_minimized.mae

> <i_m_Source_File_Index>
1

> <s_pdb_PDB_TITLE>
CRYSTAL STRUCTURE OF THE SARS-COV-2(2019-NCOV) MAIN PROTEASE IN COMPLEX WITH COMPOUND 5

> <s_pdb_PDB_ID>
7L11

> <r_pdb_PDB_CRYST1_a>
67.888

> <r_pdb_PDB_CRYST1_b>
101.192

> <r_pdb_PDB_CRYST1_c>
103.82

> <r_pdb_PDB_CRYST1_alpha>
90

> <r_pdb_PDB_CRYST1_beta>
90

> <r_pdb_PDB_CRYST1_gamma>
90

> <s_pdb_PDB_CRYST1_Space_Group>
P 21 21 21

> <i_pdb_PDB_CRYST1_z>
8

> <s_pdb_PDB_CLASSIFICATION>
VIRAL PROTEIN, HYDROLASE

> <s_pdb_PDB_DEPOSITION_DATE>
14-DEC-20

> <s_pdb_PDB_format_version>
3.30

> <r_pdb_PDB_R>
0.204999998211861

> <r_pdb_PDB_Rfree>
0.23199999332428

> <r_pdb_PDB_RESOLUTION>
1.8

> <s_pdb_PDB_EXPDTA>
X-RAY DIFFRACTION

> <r_pdb_PDB_EXPDTA_TEMPERATURE>
100

> <s_pdb_PDB_REMARK_350_Biomolecule_1_Chains>
A, B

> <s_pdb_PDB_REMARK_350_Biomolecule_1_Transformation_1>
1.000000 0.000000 0.000000   0.000000;0.000000 1.000000 0.000000   0.000000;0.000000 0.000000 1.000000   0.000000

> <s_ppw_entry_id_backup>
51

> <b_ppw_prepared>
1

> <s_ppw_prepared_with_version>
2018-1

> <b_ppw_assigned_bond_orders>
1

> <b_ppw_added_hydrogens>
1

> <b_ppw_treated_metals>
1

> <b_ppw_created_disulfur>
1

> <b_ppw_deleted_far_waters>
1

> <b_ppw_ran_protassign>
1

> <b_ppw_removed_non_hbond_waters>
1

> <r_i_Potential_Energy-OPLS3>
-2983.49388898291

> <r_i_RMS_Derivative-OPLS3>
0.0861287431338031

> <r_i_Max_Derivative-OPLS3>
4.42094032184367

> <r_i_Stretch_Energy-OPLS3>
279.382948670202

> <r_i_Bend_Energy-OPLS3>
1163.53805841995

> <r_i_LJ-14_Energy-OPLS3>
2844.36842606809

> <r_i_El-14_Energy-OPLS3>
1108.8582204308

> <r_i_Van_der_Waals_Energy-OPLS3>
-5963.79869847403

> <r_i_Electrostatic_Energy-OPLS3>
-3408.35883755102

> <r_i_Dihedral_Energy-OPLS3>
940.65846719102

> <r_i_target_temperature>
298

> <b_ppw_ran_impref>
1

> <s_m_subgroup_title>
Crystallographic_analogues

> <s_m_subgroupid>
Crystallographic_analogues

> <b_m_subgroup_collapsed>
0

$$$$
