Compound_50-7M90
                    3D
 Structure written by MMmdl.
 60 64  0  0  1  0            999 V2000
    8.3714   -1.4533   21.5253 C   0  0  0  0  0  0
    8.9209   -1.6243   19.1856 C   0  0  0  0  0  0
    7.8061   -1.4734   18.3545 C   0  0  0  0  0  0
    8.6723   -2.9738   16.8060 C   0  0  0  0  0  0
    9.8230   -3.1722   17.5712 C   0  0  0  0  0  0
    9.9508   -2.4807   18.7785 C   0  0  0  0  0  0
    9.6674    0.2656   20.4330 C   0  0  0  0  0  0
    9.7827    1.0786   21.5068 C   0  0  0  0  0  0
   10.5463    2.3344   21.4907 C   0  0  0  0  0  0
   11.2146    2.7579   22.5968 C   0  0  0  0  0  0
   12.0573    4.7030   21.6355 C   0  0  0  0  0  0
    9.0922    0.5969   22.7016 C   0  0  0  0  0  0
    8.4303   -0.5907   22.7209 C   0  0  0  0  0  0
    7.6788   -0.9872   23.9355 C   0  0  0  0  0  0
    6.6748   -0.1528   24.4352 C   0  0  0  0  0  0
    5.9487   -0.5149   25.5653 C   0  0  0  0  0  0
    7.1166   -8.1631   26.9071 C   0  0  0  0  0  0
    5.7784   -6.2094   26.3682 C   0  0  0  0  0  0
    4.7573   -7.0976   25.6313 C   0  0  0  0  0  0
    5.8985   -9.0780   26.6219 C   0  0  0  0  0  0
   10.5732    3.2405   20.3284 C   0  0  0  0  0  0
    6.2311   -1.7111   26.2218 C   0  0  0  0  0  0
    7.2348   -2.5600   25.7530 C   0  0  0  0  0  0
    8.3861   -4.6845   25.9953 C   0  0  0  0  0  0
    8.2099   -6.0227   26.7446 C   0  0  0  0  0  0
    7.9552   -2.1865   24.6053 C   0  0  0  0  0  0
    8.9884   -0.9335   20.4059 N   0  0  0  0  0  0
    7.6728   -2.1336   17.1760 N   0  0  0  0  0  0
   11.3596    4.3449   20.5145 N   0  0  0  0  0  0
   11.9769    3.9233   22.7057 N   0  5  0  0  0  0
    7.0914   -6.8474   26.2706 N   0  0  0  0  0  0
    4.7917   -8.4762   26.1379 N   0  0  0  0  0  0
    7.8024   -2.5505   21.5337 O   0  0  0  0  0  0
    9.9470    3.0790   19.2827 O   0  0  0  0  0  0
   12.7002    5.7457   21.5315 O   0  0  0  0  0  0
    7.4395   -3.7255   26.4646 O   0  0  0  0  0  0
    5.9553  -10.2753   26.8911 O   0  0  0  0  0  0
    4.7125    0.5306   26.1526 Cl  0  0  0  0  0  0
    6.9951   -0.8185   18.6387 H   0  0  0  0  0  0
    8.5365   -3.5018   15.8744 H   0  0  0  0  0  0
   10.5923   -3.8530   17.2382 H   0  0  0  0  0  0
   10.8281   -2.6216   19.3931 H   0  0  0  0  0  0
   10.1300    0.4982   19.4830 H   0  0  0  0  0  0
   11.2041    2.1417   23.4847 H   0  0  0  0  0  0
    9.0772    1.2217   23.5838 H   0  0  0  0  0  0
    6.4488    0.7796   23.9384 H   0  0  0  0  0  0
    8.0092   -8.7139   26.6052 H   0  0  0  0  0  0
    7.1621   -8.0661   27.9938 H   0  0  0  0  0  0
    5.4959   -6.0565   27.4112 H   0  0  0  0  0  0
    5.7764   -5.2403   25.8768 H   0  0  0  0  0  0
    4.9758   -7.1158   24.5626 H   0  0  0  0  0  0
    3.7482   -6.7026   25.7458 H   0  0  0  0  0  0
    5.6631   -1.9865   27.0977 H   0  0  0  0  0  0
    8.2965   -4.8636   24.9218 H   0  0  0  0  0  0
    9.3852   -4.2885   26.1834 H   0  0  0  0  0  0
    8.1082   -5.8486   27.8156 H   0  0  0  0  0  0
    9.1273   -6.5982   26.6109 H   0  0  0  0  0  0
    8.7408   -2.8173   24.2177 H   0  0  0  0  0  0
   11.4112    4.9937   19.7445 H   0  0  0  0  0  0
    3.9838   -9.0612   25.9665 H   0  0  0  0  0  0
  1 13  1  0  0  0
  1 27  1  0  0  0
  1 33  2  0  0  0
  2  3  1  0  0  0
  2  6  2  0  0  0
  2 27  1  0  0  0
  3 28  2  0  0  0
  3 39  1  0  0  0
  4  5  2  0  0  0
  4 28  1  0  0  0
  4 40  1  0  0  0
  5  6  1  0  0  0
  5 41  1  0  0  0
  6 42  1  0  0  0
  7  8  2  0  0  0
  7 27  1  0  0  0
  7 43  1  0  0  0
  8  9  1  0  0  0
  8 12  1  0  0  0
  9 10  2  0  0  0
  9 21  1  0  0  0
 10 30  1  0  0  0
 10 44  1  0  0  0
 11 29  1  0  0  0
 11 30  1  0  0  0
 11 35  2  0  0  0
 12 13  2  0  0  0
 12 45  1  0  0  0
 13 14  1  0  0  0
 14 15  1  0  0  0
 14 26  2  0  0  0
 15 16  2  0  0  0
 15 46  1  0  0  0
 16 22  1  0  0  0
 16 38  1  0  0  0
 17 20  1  0  0  0
 17 31  1  0  0  0
 17 47  1  0  0  0
 17 48  1  0  0  0
 18 19  1  0  0  0
 18 31  1  0  0  0
 18 49  1  0  0  0
 18 50  1  0  0  0
 19 32  1  0  0  0
 19 51  1  0  0  0
 19 52  1  0  0  0
 20 32  1  0  0  0
 20 37  2  0  0  0
 21 29  1  0  0  0
 21 34  2  0  0  0
 22 23  2  0  0  0
 22 53  1  0  0  0
 23 26  1  0  0  0
 23 36  1  0  0  0
 24 25  1  0  0  0
 24 36  1  0  0  0
 24 54  1  0  0  0
 24 55  1  0  0  0
 25 31  1  0  0  0
 25 56  1  0  0  0
 25 57  1  0  0  0
 26 58  1  0  0  0
 29 59  1  0  0  0
 32 60  1  0  0  0
M  CHG  1  30  -1
M  END
> <s_m_entry_id>
1559

> <s_m_entry_name>
7m90.1_ligand

> <s_m_Source_Path>
/home/iakrani/Data_2/Ifigeneia/Mpro_water_data/Perampanel_analogue_structures

> <s_m_Source_File>
7m90_minimized.mae

> <i_m_Source_File_Index>
1

> <s_pdb_PDB_TITLE>
CRYSTAL STRUCTURE OF THE SARS-COV-2(2019-NCOV) MAIN PROTEASE IN COMPLEX WITH COMPOUND 50

> <s_pdb_PDB_ID>
7M90

> <r_pdb_PDB_CRYST1_a>
96.807

> <r_pdb_PDB_CRYST1_b>
82.66

> <r_pdb_PDB_CRYST1_c>
54.667

> <r_pdb_PDB_CRYST1_alpha>
90

> <r_pdb_PDB_CRYST1_beta>
117.53

> <r_pdb_PDB_CRYST1_gamma>
90

> <s_pdb_PDB_CRYST1_Space_Group>
C 1 2 1

> <i_pdb_PDB_CRYST1_z>
4

> <s_pdb_PDB_CLASSIFICATION>
VIRAL PROTEIN, HYDROLASE

> <s_pdb_PDB_DEPOSITION_DATE>
30-MAR-21

> <s_pdb_PDB_format_version>
3.30

> <r_pdb_PDB_R>
0.216000005602837

> <r_pdb_PDB_Rfree>
0.273000001907349

> <r_pdb_PDB_RESOLUTION>
2.19

> <s_pdb_PDB_EXPDTA>
X-RAY DIFFRACTION

> <r_pdb_PDB_EXPDTA_TEMPERATURE>
100

> <s_pdb_PDB_REMARK_350_Biomolecule_1_Chains>
A

> <s_pdb_PDB_REMARK_350_Biomolecule_1_Transformation_1>
1.000000 0.000000 0.000000   0.000000;0.000000 1.000000 0.000000   0.000000;0.000000 0.000000 1.000000   0.000000

> <s_ppw_entry_id_backup>
93

> <b_ppw_prepared>
1

> <s_ppw_prepared_with_version>
2018-1

> <b_ppw_assigned_bond_orders>
1

> <b_ppw_added_hydrogens>
1

> <b_ppw_treated_metals>
1

> <b_ppw_created_disulfur>
1

> <b_ppw_deleted_far_waters>
1

> <b_ppw_ran_protassign>
1

> <b_ppw_removed_non_hbond_waters>
1

> <r_i_Potential_Energy-OPLS3>
-1208.53098009276

> <r_i_RMS_Derivative-OPLS3>
0.101973920075238

> <r_i_Max_Derivative-OPLS3>
1.46813281890065

> <r_i_Stretch_Energy-OPLS3>
139.435328856512

> <r_i_Bend_Energy-OPLS3>
571.433425157826

> <r_i_LJ-14_Energy-OPLS3>
1387.67286501616

> <r_i_El-14_Energy-OPLS3>
595.956147686926

> <r_i_Van_der_Waals_Energy-OPLS3>
-2751.79599595471

> <r_i_Electrostatic_Energy-OPLS3>
-1605.6760089056

> <r_i_Dihedral_Energy-OPLS3>
416.862752485848

> <r_i_target_temperature>
298

> <b_ppw_ran_impref>
1

> <s_pdb_PDB_REMARK_350_Biomolecule_1_Transformation_2>
-1.000000 0.000000 0.000000   0.000000;0.000000 1.000000 0.000000   0.000000;0.000000 0.000000 -1.000000   0.000000

> <s_m_subgroup_title>
Crystallographic_analogues

> <s_m_subgroupid>
Crystallographic_analogues

> <b_m_subgroup_collapsed>
0

$$$$
