Compound_26-7M91
                    3D
 Structure written by MMmdl.
 51 54  0  0  1  0            999 V2000
    9.5802    0.3739   20.4636 C   0  0  0  0  0  0
    9.7029   -2.9992   17.5419 C   0  0  0  0  0  0
    8.5440   -2.8073   16.7892 C   0  0  0  0  0  0
    7.6751   -1.3260   18.3548 C   0  0  0  0  0  0
    8.2520   -1.3394   21.5156 C   0  0  0  0  0  0
    8.7997   -1.4715   19.1743 C   0  0  0  0  0  0
   10.5859    3.3044   20.4157 C   0  0  0  0  0  0
    8.3558   -0.5289   22.7480 C   0  0  0  0  0  0
    7.6258   -0.9669   23.9739 C   0  0  0  0  0  0
    7.7059   -2.2894   24.4411 C   0  0  0  0  0  0
   11.2389    2.7484   22.6616 C   0  0  0  0  0  0
    6.9755   -5.0872   25.1634 C   0  0  0  0  0  0
    6.8592   -0.0534   24.7090 C   0  0  0  0  0  0
    5.4997   -5.4626   24.9440 C   0  0  0  0  0  0
    4.8483   -6.2311   26.1015 C   0  0  0  0  0  0
    6.2792   -1.7679   26.3087 C   0  0  0  0  0  0
   12.1930    4.6971   21.6778 C   0  0  0  0  0  0
    9.0560    0.6414   22.7529 C   0  0  0  0  0  0
    7.0188   -2.7061   25.5897 C   0  0  0  0  0  0
    6.1932   -0.4476   25.8679 C   0  0  0  0  0  0
    9.8338   -2.3151   18.7516 C   0  0  0  0  0  0
    9.7357    1.1479   21.5609 C   0  0  0  0  0  0
   10.5401    2.3789   21.5604 C   0  0  0  0  0  0
    3.5428   -6.3594   25.8751 F   0  0  0  0  0  0
    5.3627   -7.4548   26.2219 F   0  0  0  0  0  0
    4.9990   -5.6102   27.2706 F   0  0  0  0  0  0
    8.8696   -0.8024   20.4075 N   0  0  0  0  0  0
    7.5393   -1.9794   17.1737 N   0  0  0  0  0  0
   11.4320    4.3635   20.5913 N   0  0  0  0  0  0
   12.0376    3.8538   22.7375 N   0  0  0  0  0  0
    7.6513   -2.4193   21.4800 O   0  0  0  0  0  0
    9.9254    3.1983   19.3839 O   0  0  0  0  0  0
   12.9418    5.6709   21.6979 O   0  0  0  0  0  0
    7.0824   -3.9952   26.0827 O   0  0  0  0  0  0
    5.2667    0.7046   26.7543 Cl  0  0  0  0  0  0
   10.0313    0.6218   19.5123 H   0  0  0  0  0  0
   10.4766   -3.6706   17.1987 H   0  0  0  0  0  0
    8.4031   -3.3341   15.8585 H   0  0  0  0  0  0
    6.8558   -0.6865   18.6501 H   0  0  0  0  0  0
    8.3308   -2.9890   23.9081 H   0  0  0  0  0  0
   11.2786    2.1813   23.5811 H   0  0  0  0  0  0
    7.4553   -4.8933   24.2052 H   0  0  0  0  0  0
    7.5123   -5.9370   25.5863 H   0  0  0  0  0  0
    6.7703    0.9715   24.3771 H   0  0  0  0  0  0
    5.4067   -6.0638   24.0408 H   0  0  0  0  0  0
    4.9310   -4.5557   24.7619 H   0  0  0  0  0  0
    5.7583   -2.0715   27.2045 H   0  0  0  0  0  0
    9.0938    1.2289   23.6594 H   0  0  0  0  0  0
   10.7166   -2.4586   19.3579 H   0  0  0  0  0  0
   11.4875    5.0082   19.8157 H   0  0  0  0  0  0
   12.5698    4.0693   23.5681 H   0  0  0  0  0  0
  1 22  2  0  0  0
  1 27  1  0  0  0
  1 36  1  0  0  0
  2  3  1  0  0  0
  2 21  2  0  0  0
  2 37  1  0  0  0
  3 28  2  0  0  0
  3 38  1  0  0  0
  4  6  2  0  0  0
  4 28  1  0  0  0
  4 39  1  0  0  0
  5  8  1  0  0  0
  5 27  1  0  0  0
  5 31  2  0  0  0
  6 21  1  0  0  0
  6 27  1  0  0  0
  7 23  1  0  0  0
  7 29  1  0  0  0
  7 32  2  0  0  0
  8  9  1  0  0  0
  8 18  2  0  0  0
  9 10  1  0  0  0
  9 13  2  0  0  0
 10 19  2  0  0  0
 10 40  1  0  0  0
 11 23  2  0  0  0
 11 30  1  0  0  0
 11 41  1  0  0  0
 12 14  1  0  0  0
 12 34  1  0  0  0
 12 42  1  0  0  0
 12 43  1  0  0  0
 13 20  1  0  0  0
 13 44  1  0  0  0
 14 15  1  0  0  0
 14 45  1  0  0  0
 14 46  1  0  0  0
 15 24  1  0  0  0
 15 25  1  0  0  0
 15 26  1  0  0  0
 16 19  1  0  0  0
 16 20  2  0  0  0
 16 47  1  0  0  0
 17 29  1  0  0  0
 17 30  1  0  0  0
 17 33  2  0  0  0
 18 22  1  0  0  0
 18 48  1  0  0  0
 19 34  1  0  0  0
 20 35  1  0  0  0
 21 49  1  0  0  0
 22 23  1  0  0  0
 29 50  1  0  0  0
 30 51  1  0  0  0
M  END
> <s_m_entry_id>
1562

> <s_m_entry_name>
7m91.1_ligand

> <s_m_Source_Path>
/home/iakrani/Data_2/Ifigeneia/Mpro_water_data/Perampanel_analogue_structures

> <s_m_Source_File>
7m91_minimized.mae

> <i_m_Source_File_Index>
1

> <s_pdb_PDB_TITLE>
CRYSTAL STRUCTURE OF THE SARS-COV-2(2019-NCOV) MAIN PROTEASE IN COMPLEX WITH COMPOUND 25

> <s_pdb_PDB_ID>
7M91

> <r_pdb_PDB_CRYST1_a>
97.817

> <r_pdb_PDB_CRYST1_b>
80.913

> <r_pdb_PDB_CRYST1_c>
54.546

> <r_pdb_PDB_CRYST1_alpha>
90

> <r_pdb_PDB_CRYST1_beta>
116.58

> <r_pdb_PDB_CRYST1_gamma>
90

> <s_pdb_PDB_CRYST1_Space_Group>
C 1 2 1

> <i_pdb_PDB_CRYST1_z>
4

> <s_pdb_PDB_CLASSIFICATION>
VIRAL PROTEIN, HYDROLASE

> <s_pdb_PDB_DEPOSITION_DATE>
30-MAR-21

> <s_pdb_PDB_format_version>
3.30

> <r_pdb_PDB_R>
0.197999998927116

> <r_pdb_PDB_Rfree>
0.232999995350838

> <r_pdb_PDB_RESOLUTION>
1.95

> <s_pdb_PDB_EXPDTA>
X-RAY DIFFRACTION

> <r_pdb_PDB_EXPDTA_TEMPERATURE>
100

> <s_pdb_PDB_REMARK_350_Biomolecule_1_Chains>
A

> <s_pdb_PDB_REMARK_350_Biomolecule_1_Transformation_1>
1.000000 0.000000 0.000000   0.000000;0.000000 1.000000 0.000000   0.000000;0.000000 0.000000 1.000000   0.000000

> <s_ppw_entry_id_backup>
101

> <b_ppw_prepared>
1

> <s_ppw_prepared_with_version>
2018-1

> <b_ppw_assigned_bond_orders>
1

> <b_ppw_added_hydrogens>
1

> <b_ppw_treated_metals>
1

> <b_ppw_created_disulfur>
1

> <b_ppw_deleted_far_waters>
1

> <b_ppw_ran_protassign>
1

> <b_ppw_removed_non_hbond_waters>
1

> <r_i_Potential_Energy-OPLS3>
-1332.37359015268

> <r_i_RMS_Derivative-OPLS3>
0.104670433094939

> <r_i_Max_Derivative-OPLS3>
2.43420710164158

> <r_i_Stretch_Energy-OPLS3>
138.563607997264

> <r_i_Bend_Energy-OPLS3>
574.043994309318

> <r_i_LJ-14_Energy-OPLS3>
1410.15798627305

> <r_i_El-14_Energy-OPLS3>
544.18312566521

> <r_i_Van_der_Waals_Energy-OPLS3>
-2869.29231543673

> <r_i_Electrostatic_Energy-OPLS3>
-1622.53788497883

> <r_i_Dihedral_Energy-OPLS3>
461.991041694053

> <r_i_target_temperature>
298

> <b_ppw_ran_impref>
1

> <s_pdb_PDB_REMARK_350_Biomolecule_1_Transformation_2>
-1.000000 0.000000 0.000000   0.000000;0.000000 1.000000 0.000000   0.000000;0.000000 0.000000 -1.000000   0.000000

> <s_m_subgroup_title>
Crystallographic_analogues

> <s_m_subgroupid>
Crystallographic_analogues

> <b_m_subgroup_collapsed>
0

$$$$
