Compound_29-7M8Z
                    3D
 Structure written by MMmdl.
 58 61  0  0  1  0            999 V2000
    8.3435   -1.2717   21.5195 C   0  0  0  0  0  0
    8.4359   -0.4456   22.7432 C   0  0  0  0  0  0
    7.7341   -0.8866   23.9826 C   0  0  0  0  0  0
    6.9773    0.0104   24.7482 C   0  0  0  0  0  0
    6.3307   -0.4114   25.9097 C   0  0  0  0  0  0
    6.4206   -1.7434   26.3165 C   0  0  0  0  0  0
    7.7750   -2.3700   21.4969 O   0  0  0  0  0  0
    7.1874   -3.9769   25.9930 O   0  0  0  0  0  0
    8.9361   -0.7300   20.3985 N   0  0  0  0  0  0
    7.1581   -2.6624   25.5687 C   0  0  0  0  0  0
    7.4964   -4.9862   25.0279 C   0  0  0  0  0  0
    7.1864   -6.4035   25.5484 C   0  0  0  0  0  0
    9.8997    3.3266   19.3934 O   0  0  0  0  0  0
   12.9465    5.7824   21.7010 O   0  0  0  0  0  0
    5.7474   -6.6415   26.0788 C   0  0  0  0  0  0
    4.6566   -6.1284   25.1233 C   0  0  0  0  0  0
    5.5590   -6.0650   27.4882 C   0  0  0  0  0  0
    7.8327   -2.2114   24.4266 C   0  0  0  0  0  0
    9.1157    0.7344   22.7351 C   0  0  0  0  0  0
    9.7803    1.2386   21.5357 C   0  0  0  0  0  0
   10.5727    2.4743   21.5380 C   0  0  0  0  0  0
   10.5822    3.4220   20.4120 C   0  0  0  0  0  0
   11.2942    2.8246   22.6304 C   0  0  0  0  0  0
   12.2070    4.8020   21.6692 C   0  0  0  0  0  0
    9.6292    0.4586   20.4421 C   0  0  0  0  0  0
    8.8580   -1.4137   19.1737 C   0  0  0  0  0  0
    9.8957   -2.2511   18.7458 C   0  0  0  0  0  0
    9.7431   -2.9737   17.5608 C   0  0  0  0  0  0
    8.5615   -2.8219   16.8330 C   0  0  0  0  0  0
    7.7110   -1.3092   18.3791 C   0  0  0  0  0  0
   11.4242    4.4840   20.5920 N   0  0  0  0  0  0
   12.0843    3.9337   22.7127 N   0  0  0  0  0  0
    7.5549   -1.9986   17.2205 N   0  0  0  0  0  0
    5.5680   -8.0392   26.2001 O   0  0  0  0  0  0
    5.4191    0.7207   26.8378 Cl  0  0  0  0  0  0
    6.8780    1.0410   24.4374 H   0  0  0  0  0  0
    5.9042   -2.0703   27.2069 H   0  0  0  0  0  0
    8.5542   -4.9327   24.7656 H   0  0  0  0  0  0
    6.9329   -4.8138   24.1085 H   0  0  0  0  0  0
    7.9118   -6.6620   26.3212 H   0  0  0  0  0  0
    7.3854   -7.0943   24.7260 H   0  0  0  0  0  0
    3.6564   -6.3786   25.4784 H   0  0  0  0  0  0
    4.7006   -5.0454   25.0249 H   0  0  0  0  0  0
    4.7730   -6.5430   24.1245 H   0  0  0  0  0  0
    4.6322   -6.4046   27.9398 H   0  0  0  0  0  0
    6.3705   -6.3720   28.1465 H   0  0  0  0  0  0
    5.5243   -4.9773   27.4794 H   0  0  0  0  0  0
    8.4420   -2.8993   23.8616 H   0  0  0  0  0  0
    9.1511    1.3303   23.6358 H   0  0  0  0  0  0
   11.3609    2.2358   23.5348 H   0  0  0  0  0  0
   10.0743    0.7071   19.4873 H   0  0  0  0  0  0
   10.7952   -2.3626   19.3339 H   0  0  0  0  0  0
   10.5166   -3.6437   17.2158 H   0  0  0  0  0  0
    8.4053   -3.3764   15.9201 H   0  0  0  0  0  0
    6.8864   -0.6798   18.6814 H   0  0  0  0  0  0
   11.4590    5.1441   19.8283 H   0  0  0  0  0  0
   12.6356    4.1317   23.5349 H   0  0  0  0  0  0
    6.1618   -8.3627   26.8815 H   0  0  0  0  0  0
  1  2  1  0  0  0
  1  7  2  0  0  0
  1  9  1  0  0  0
  2  3  1  0  0  0
  2 19  2  0  0  0
  3  4  1  0  0  0
  3 18  2  0  0  0
  4  5  2  0  0  0
  4 36  1  0  0  0
  5  6  1  0  0  0
  5 35  1  0  0  0
  6 10  2  0  0  0
  6 37  1  0  0  0
  8 10  1  0  0  0
  8 11  1  0  0  0
  9 25  1  0  0  0
  9 26  1  0  0  0
 10 18  1  0  0  0
 11 12  1  0  0  0
 11 38  1  0  0  0
 11 39  1  0  0  0
 12 15  1  0  0  0
 12 40  1  0  0  0
 12 41  1  0  0  0
 13 22  2  0  0  0
 14 24  2  0  0  0
 15 16  1  0  0  0
 15 17  1  0  0  0
 15 34  1  0  0  0
 16 42  1  0  0  0
 16 43  1  0  0  0
 16 44  1  0  0  0
 17 45  1  0  0  0
 17 46  1  0  0  0
 17 47  1  0  0  0
 18 48  1  0  0  0
 19 20  1  0  0  0
 19 49  1  0  0  0
 20 21  1  0  0  0
 20 25  2  0  0  0
 21 22  1  0  0  0
 21 23  2  0  0  0
 22 31  1  0  0  0
 23 32  1  0  0  0
 23 50  1  0  0  0
 24 31  1  0  0  0
 24 32  1  0  0  0
 25 51  1  0  0  0
 26 27  1  0  0  0
 26 30  2  0  0  0
 27 28  2  0  0  0
 27 52  1  0  0  0
 28 29  1  0  0  0
 28 53  1  0  0  0
 29 33  2  0  0  0
 29 54  1  0  0  0
 30 33  1  0  0  0
 30 55  1  0  0  0
 31 56  1  0  0  0
 32 57  1  0  0  0
 34 58  1  0  0  0
M  END
> <s_m_entry_id>
1556

> <s_m_entry_name>
7m8z.1_ligand

> <s_m_Source_Path>
/home/iakrani/Data_2/Ifigeneia/Mpro_water_data/Perampanel_analogue_structures

> <s_m_Source_File>
7m8z_minimized.mae

> <i_m_Source_File_Index>
1

> <s_pdb_PDB_TITLE>
CRYSTAL STRUCTURE OF THE SARS-COV-2(2019-NCOV) MAIN PROTEASE IN COMPLEX WITH COMPOUND 29

> <s_pdb_PDB_ID>
7M8Z

> <r_pdb_PDB_CRYST1_a>
97.711

> <r_pdb_PDB_CRYST1_b>
81.57

> <r_pdb_PDB_CRYST1_c>
54.567

> <r_pdb_PDB_CRYST1_alpha>
90

> <r_pdb_PDB_CRYST1_beta>
116.68

> <r_pdb_PDB_CRYST1_gamma>
90

> <s_pdb_PDB_CRYST1_Space_Group>
C 1 2 1

> <i_pdb_PDB_CRYST1_z>
4

> <s_pdb_PDB_CLASSIFICATION>
VIRAL PROTEIN, HYDROLASE

> <s_pdb_PDB_DEPOSITION_DATE>
30-MAR-21

> <s_pdb_PDB_format_version>
3.30

> <r_pdb_PDB_R>
0.197999998927116

> <r_pdb_PDB_Rfree>
0.239999994635582

> <r_pdb_PDB_RESOLUTION>
1.79

> <s_pdb_PDB_EXPDTA>
X-RAY DIFFRACTION

> <r_pdb_PDB_EXPDTA_TEMPERATURE>
100

> <s_pdb_PDB_REMARK_350_Biomolecule_1_Chains>
A

> <s_pdb_PDB_REMARK_350_Biomolecule_1_Transformation_1>
1.000000 0.000000 0.000000   0.000000;0.000000 1.000000 0.000000   0.000000;0.000000 0.000000 1.000000   0.000000

> <s_ppw_entry_id_backup>
70

> <b_ppw_prepared>
1

> <s_ppw_prepared_with_version>
2018-1

> <b_ppw_assigned_bond_orders>
1

> <b_ppw_added_hydrogens>
1

> <b_ppw_treated_metals>
1

> <b_ppw_created_disulfur>
1

> <b_ppw_deleted_far_waters>
1

> <b_ppw_ran_protassign>
1

> <b_ppw_removed_non_hbond_waters>
1

> <r_i_Potential_Energy-OPLS3>
-1352.09118994921

> <r_i_RMS_Derivative-OPLS3>
0.104553195975463

> <r_i_Max_Derivative-OPLS3>
3.05021352435682

> <r_i_Stretch_Energy-OPLS3>
136.683161221093

> <r_i_Bend_Energy-OPLS3>
569.128471451159

> <r_i_LJ-14_Energy-OPLS3>
1383.12819821879

> <r_i_El-14_Energy-OPLS3>
523.662223109161

> <r_i_Van_der_Waals_Energy-OPLS3>
-2843.3908063328

> <r_i_Electrostatic_Energy-OPLS3>
-1599.60355835575

> <r_i_Dihedral_Energy-OPLS3>
449.942477468511

> <r_i_target_temperature>
298

> <b_ppw_ran_impref>
1

> <s_pdb_PDB_REMARK_350_Biomolecule_1_Transformation_2>
-1.000000 0.000000 0.000000   0.000000;0.000000 1.000000 0.000000   0.000000;0.000000 0.000000 -1.000000   0.000000

> <s_m_subgroup_title>
Crystallographic_analogues

> <s_m_subgroupid>
Crystallographic_analogues

> <b_m_subgroup_collapsed>
0

$$$$
