6m03_yellow_waters
                    3D
 Structure written by MMmdl.
378252  0  0  1  0            999 V2000
  -31.2440   -6.4425  -22.7710 O   0  0  0  0  0  0
  -31.1518   -5.5728  -23.1602 H   0  0  0  0  0  0
  -30.4696   -6.9211  -23.0668 H   0  0  0  0  0  0
  -31.2440   -6.4425  -22.7710 O   0  0  0  0  0  0
  -30.6143   -5.9050  -23.2515 H   0  0  0  0  0  0
  -30.7654   -6.7383  -21.9966 H   0  0  0  0  0  0
  -20.2440   -4.9425  -35.7710 O   0  0  0  0  0  0
  -19.8548   -5.0347  -34.9013 H   0  0  0  0  0  0
  -19.9482   -5.7169  -36.2496 H   0  0  0  0  0  0
  -20.7440   -9.4425  -35.7710 O   0  0  0  0  0  0
  -20.2065   -8.9620  -36.4007 H   0  0  0  0  0  0
  -21.0398  -10.2169  -36.2496 H   0  0  0  0  0  0
  -20.7440   -9.4425  -35.7710 O   0  0  0  0  0  0
  -19.8743   -9.8317  -35.8632 H   0  0  0  0  0  0
  -21.2226   -9.7383  -36.5454 H   0  0  0  0  0  0
  -12.2440   -6.9425  -24.7710 O   0  0  0  0  0  0
  -12.8737   -6.4050  -24.2905 H   0  0  0  0  0  0
  -12.7226   -7.2383  -25.5454 H   0  0  0  0  0  0
  -27.2440   -7.9425  -26.2710 O   0  0  0  0  0  0
  -26.8548   -7.8503  -27.1407 H   0  0  0  0  0  0
  -26.9482   -7.1681  -25.7924 H   0  0  0  0  0  0
  -27.2440   -7.9425  -26.2710 O   0  0  0  0  0  0
  -26.3174   -8.1825  -26.2710 H   0  0  0  0  0  0
  -27.2440   -6.9853  -26.2710 H   0  0  0  0  0  0
  -27.2440   -7.9425  -26.2710 O   0  0  0  0  0  0
  -27.1518   -7.0728  -26.6602 H   0  0  0  0  0  0
  -26.4696   -8.4211  -26.5668 H   0  0  0  0  0  0
  -27.2440   -7.9425  -26.2710 O   0  0  0  0  0  0
  -26.6143   -7.4050  -25.7905 H   0  0  0  0  0  0
  -26.7654   -8.2383  -27.0454 H   0  0  0  0  0  0
  -23.7440   -7.9425  -23.2710 O   0  0  0  0  0  0
  -24.3737   -7.4050  -23.7515 H   0  0  0  0  0  0
  -24.2226   -8.2383  -22.4966 H   0  0  0  0  0  0
  -23.7440   -7.9425  -23.2710 O   0  0  0  0  0  0
  -24.3737   -8.4800  -23.7515 H   0  0  0  0  0  0
  -24.2226   -7.6467  -22.4966 H   0  0  0  0  0  0
  -23.7440   -7.9425  -23.2710 O   0  0  0  0  0  0
  -24.3737   -8.4800  -22.7905 H   0  0  0  0  0  0
  -24.2226   -7.6467  -24.0454 H   0  0  0  0  0  0
  -23.7440   -7.9425  -23.2710 O   0  0  0  0  0  0
  -24.3737   -7.4050  -22.7905 H   0  0  0  0  0  0
  -24.2226   -8.2383  -24.0454 H   0  0  0  0  0  0
  -14.2440   -7.9425  -24.7710 O   0  0  0  0  0  0
  -13.8548   -7.8503  -25.6407 H   0  0  0  0  0  0
  -13.9482   -7.1681  -24.2924 H   0  0  0  0  0  0
  -14.7440  -10.9425  -27.7710 O   0  0  0  0  0  0
  -15.6706  -11.1825  -27.7710 H   0  0  0  0  0  0
  -14.7440   -9.9853  -27.7710 H   0  0  0  0  0  0
  -14.7440  -10.9425  -27.7710 O   0  0  0  0  0  0
  -14.7440  -10.0159  -27.5310 H   0  0  0  0  0  0
  -14.7440  -10.9425  -28.7282 H   0  0  0  0  0  0
  -16.2440  -10.4425  -28.2710 O   0  0  0  0  0  0
  -16.7245   -9.8128  -28.8085 H   0  0  0  0  0  0
  -15.4696   -9.9639  -27.9752 H   0  0  0  0  0  0
  -16.2440  -10.4425  -28.2710 O   0  0  0  0  0  0
  -15.8548  -10.3503  -29.1407 H   0  0  0  0  0  0
  -15.9482   -9.6681  -27.7924 H   0  0  0  0  0  0
  -15.2440  -10.4425  -26.2710 O   0  0  0  0  0  0
  -15.7815  -10.9230  -26.9007 H   0  0  0  0  0  0
  -14.9482   -9.6681  -26.7496 H   0  0  0  0  0  0
  -15.2440  -10.4425  -26.2710 O   0  0  0  0  0  0
  -14.7635   -9.8128  -26.8085 H   0  0  0  0  0  0
  -16.0184   -9.9639  -25.9752 H   0  0  0  0  0  0
  -15.2440  -10.4425  -26.2710 O   0  0  0  0  0  0
  -15.1518   -9.5728  -26.6602 H   0  0  0  0  0  0
  -14.4696  -10.9211  -26.5668 H   0  0  0  0  0  0
  -16.2440   -9.9425  -26.2710 O   0  0  0  0  0  0
  -15.8548   -9.8503  -27.1407 H   0  0  0  0  0  0
  -15.9482   -9.1681  -25.7924 H   0  0  0  0  0  0
  -16.2440   -9.9425  -26.2710 O   0  0  0  0  0  0
  -15.3743   -9.5533  -26.3632 H   0  0  0  0  0  0
  -16.7226   -9.6467  -27.0454 H   0  0  0  0  0  0
  -16.2440   -9.9425  -26.2710 O   0  0  0  0  0  0
  -16.1518   -9.0728  -26.6602 H   0  0  0  0  0  0
  -15.4696  -10.4211  -26.5668 H   0  0  0  0  0  0
  -16.2440   -9.9425  -26.2710 O   0  0  0  0  0  0
  -15.7635   -9.3128  -26.8085 H   0  0  0  0  0  0
  -17.0184   -9.4639  -25.9752 H   0  0  0  0  0  0
  -16.2440   -9.9425  -26.2710 O   0  0  0  0  0  0
  -15.6143   -9.4050  -26.7515 H   0  0  0  0  0  0
  -15.7654  -10.2383  -25.4966 H   0  0  0  0  0  0
  -17.2440   -9.4425  -27.7710 O   0  0  0  0  0  0
  -16.3743   -9.0533  -27.6788 H   0  0  0  0  0  0
  -17.7226   -9.1467  -26.9966 H   0  0  0  0  0  0
  -17.2440   -9.4425  -27.7710 O   0  0  0  0  0  0
  -16.3743   -9.0533  -27.8632 H   0  0  0  0  0  0
  -17.7226   -9.1467  -28.5454 H   0  0  0  0  0  0
  -26.7440   -2.4425  -26.2710 O   0  0  0  0  0  0
  -27.6706   -2.2025  -26.2710 H   0  0  0  0  0  0
  -26.7440   -3.3997  -26.2710 H   0  0  0  0  0  0
  -26.2440    2.0575  -36.7710 O   0  0  0  0  0  0
  -25.6143    1.5200  -37.2515 H   0  0  0  0  0  0
  -25.7654    2.3533  -35.9966 H   0  0  0  0  0  0
  -26.2440    2.0575  -36.7710 O   0  0  0  0  0  0
  -25.8548    2.1497  -35.9013 H   0  0  0  0  0  0
  -25.9482    2.8319  -37.2496 H   0  0  0  0  0  0
  -26.7440   -4.4425  -19.7710 O   0  0  0  0  0  0
  -26.6518   -5.3122  -19.3818 H   0  0  0  0  0  0
  -25.9696   -3.9639  -19.4752 H   0  0  0  0  0  0
  -26.7440   -4.4425  -19.7710 O   0  0  0  0  0  0
  -25.8174   -4.2025  -19.7710 H   0  0  0  0  0  0
  -26.7440   -5.3997  -19.7710 H   0  0  0  0  0  0
  -25.2440    2.5575  -37.2710 O   0  0  0  0  0  0
  -25.2440    3.4841  -37.5110 H   0  0  0  0  0  0
  -25.2440    2.5575  -36.3138 H   0  0  0  0  0  0
  -21.7440   -4.9425  -23.2710 O   0  0  0  0  0  0
  -22.6137   -5.3317  -23.3632 H   0  0  0  0  0  0
  -21.2654   -5.2383  -24.0454 H   0  0  0  0  0  0
  -21.7440   -4.9425  -23.2710 O   0  0  0  0  0  0
  -21.5040   -4.9425  -24.1976 H   0  0  0  0  0  0
  -22.7012   -4.9425  -23.2710 H   0  0  0  0  0  0
  -21.7440   -4.9425  -23.2710 O   0  0  0  0  0  0
  -22.6137   -4.5533  -23.3632 H   0  0  0  0  0  0
  -21.2654   -4.6467  -24.0454 H   0  0  0  0  0  0
  -12.2440   -8.9425  -26.2710 O   0  0  0  0  0  0
  -12.3362   -8.0728  -26.6602 H   0  0  0  0  0  0
  -13.0184   -9.4211  -26.5668 H   0  0  0  0  0  0
  -12.2440   -8.9425  -26.2710 O   0  0  0  0  0  0
  -13.1706   -9.1825  -26.2710 H   0  0  0  0  0  0
  -12.2440   -7.9853  -26.2710 H   0  0  0  0  0  0
  -19.2440   -4.9425  -28.7710 O   0  0  0  0  0  0
  -19.6332   -5.0347  -27.9013 H   0  0  0  0  0  0
  -19.5398   -5.7169  -29.2496 H   0  0  0  0  0  0
  -19.2440   -4.9425  -28.7710 O   0  0  0  0  0  0
  -20.1706   -4.7025  -28.7710 H   0  0  0  0  0  0
  -19.2440   -5.8997  -28.7710 H   0  0  0  0  0  0
  -19.2440   -4.9425  -28.7710 O   0  0  0  0  0  0
  -19.2440   -5.8691  -29.0110 H   0  0  0  0  0  0
  -19.2440   -4.9425  -27.8138 H   0  0  0  0  0  0
  -19.2440   -4.9425  -28.7710 O   0  0  0  0  0  0
  -19.8737   -5.4800  -29.2515 H   0  0  0  0  0  0
  -19.7226   -4.6467  -27.9966 H   0  0  0  0  0  0
  -12.2440   -4.4425  -18.2710 O   0  0  0  0  0  0
  -11.8548   -4.3503  -17.4013 H   0  0  0  0  0  0
  -11.9482   -3.6681  -18.7496 H   0  0  0  0  0  0
  -21.2440   -9.4425  -26.2710 O   0  0  0  0  0  0
  -20.7065   -8.9620  -26.9007 H   0  0  0  0  0  0
  -21.5398  -10.2169  -26.7496 H   0  0  0  0  0  0
  -21.2440   -9.4425  -26.2710 O   0  0  0  0  0  0
  -20.7065   -9.9230  -26.9007 H   0  0  0  0  0  0
  -21.5398   -8.6681  -26.7496 H   0  0  0  0  0  0
  -21.2440   -9.4425  -26.2710 O   0  0  0  0  0  0
  -21.1518   -8.5728  -26.6602 H   0  0  0  0  0  0
  -20.4696   -9.9211  -26.5668 H   0  0  0  0  0  0
  -21.2440   -9.4425  -26.2710 O   0  0  0  0  0  0
  -21.1518  -10.3122  -26.6602 H   0  0  0  0  0  0
  -20.4696   -8.9639  -26.5668 H   0  0  0  0  0  0
  -21.2440   -9.4425  -26.2710 O   0  0  0  0  0  0
  -21.7815   -9.9230  -26.9007 H   0  0  0  0  0  0
  -20.9482   -8.6681  -26.7496 H   0  0  0  0  0  0
  -21.2440   -9.4425  -26.2710 O   0  0  0  0  0  0
  -21.7815   -8.9620  -26.9007 H   0  0  0  0  0  0
  -20.9482  -10.2169  -26.7496 H   0  0  0  0  0  0
  -28.7440   -2.9425  -26.2710 O   0  0  0  0  0  0
  -29.6706   -3.1825  -26.2710 H   0  0  0  0  0  0
  -28.7440   -1.9853  -26.2710 H   0  0  0  0  0  0
  -19.7440   -3.4425  -23.2710 O   0  0  0  0  0  0
  -19.6518   -4.3122  -23.6602 H   0  0  0  0  0  0
  -18.9696   -2.9639  -23.5668 H   0  0  0  0  0  0
  -21.7440   -6.4425  -29.7710 O   0  0  0  0  0  0
  -21.2065   -5.9620  -30.4007 H   0  0  0  0  0  0
  -22.0398   -7.2169  -30.2496 H   0  0  0  0  0  0
  -21.7440   -6.4425  -29.7710 O   0  0  0  0  0  0
  -20.8743   -6.8317  -29.8632 H   0  0  0  0  0  0
  -22.2226   -6.7383  -30.5454 H   0  0  0  0  0  0
  -21.7440   -6.4425  -29.7710 O   0  0  0  0  0  0
  -22.2245   -7.0722  -30.3085 H   0  0  0  0  0  0
  -20.9696   -6.9211  -29.4752 H   0  0  0  0  0  0
  -21.7440   -6.4425  -29.7710 O   0  0  0  0  0  0
  -22.2815   -6.9230  -30.4007 H   0  0  0  0  0  0
  -21.4482   -5.6681  -30.2496 H   0  0  0  0  0  0
  -22.2440   -2.4425  -28.2710 O   0  0  0  0  0  0
  -21.3174   -2.6825  -28.2710 H   0  0  0  0  0  0
  -22.2440   -1.4853  -28.2710 H   0  0  0  0  0  0
  -22.2440   -2.4425  -28.2710 O   0  0  0  0  0  0
  -22.7245   -1.8128  -28.8085 H   0  0  0  0  0  0
  -21.4696   -1.9639  -27.9752 H   0  0  0  0  0  0
  -29.2440    1.5575  -38.2710 O   0  0  0  0  0  0
  -30.1137    1.1683  -38.1788 H   0  0  0  0  0  0
  -28.7654    1.2617  -37.4966 H   0  0  0  0  0  0
  -29.2440    1.5575  -38.2710 O   0  0  0  0  0  0
  -29.3362    0.6878  -37.8818 H   0  0  0  0  0  0
  -30.0184    2.0361  -37.9752 H   0  0  0  0  0  0
  -29.2440    1.5575  -38.2710 O   0  0  0  0  0  0
  -29.8737    2.0950  -38.7515 H   0  0  0  0  0  0
  -29.7226    1.2617  -37.4966 H   0  0  0  0  0  0
  -29.2440    1.5575  -38.2710 O   0  0  0  0  0  0
  -29.6332    1.4653  -37.4013 H   0  0  0  0  0  0
  -29.5398    0.7831  -38.7496 H   0  0  0  0  0  0
  -29.2440    1.5575  -38.2710 O   0  0  0  0  0  0
  -29.8737    1.0200  -37.7905 H   0  0  0  0  0  0
  -29.7226    1.8533  -39.0454 H   0  0  0  0  0  0
  -23.2440   -6.9425  -29.7710 O   0  0  0  0  0  0
  -22.7065   -7.4230  -30.4007 H   0  0  0  0  0  0
  -23.5398   -6.1681  -30.2496 H   0  0  0  0  0  0
  -23.2440   -6.9425  -29.7710 O   0  0  0  0  0  0
  -24.1137   -7.3317  -29.8632 H   0  0  0  0  0  0
  -22.7654   -7.2383  -30.5454 H   0  0  0  0  0  0
  -23.2440   -6.9425  -29.7710 O   0  0  0  0  0  0
  -22.6143   -6.4050  -29.2905 H   0  0  0  0  0  0
  -22.7654   -7.2383  -30.5454 H   0  0  0  0  0  0
  -17.2440  -10.4425  -23.7710 O   0  0  0  0  0  0
  -17.8737   -9.9050  -23.2905 H   0  0  0  0  0  0
  -17.7226  -10.7383  -24.5454 H   0  0  0  0  0  0
  -17.2440  -10.4425  -23.7710 O   0  0  0  0  0  0
  -16.7635   -9.8128  -24.3085 H   0  0  0  0  0  0
  -18.0184   -9.9639  -23.4752 H   0  0  0  0  0  0
  -17.2440  -10.4425  -23.7710 O   0  0  0  0  0  0
  -17.3362  -11.3122  -23.3818 H   0  0  0  0  0  0
  -18.0184   -9.9639  -23.4752 H   0  0  0  0  0  0
  -17.2440   -3.4425  -25.2710 O   0  0  0  0  0  0
  -17.7245   -2.8128  -24.7335 H   0  0  0  0  0  0
  -16.4696   -2.9639  -25.5668 H   0  0  0  0  0  0
  -17.2440   -3.4425  -25.2710 O   0  0  0  0  0  0
  -16.3743   -3.0533  -25.3632 H   0  0  0  0  0  0
  -17.7226   -3.1467  -26.0454 H   0  0  0  0  0  0
  -18.2440  -11.4425  -23.7710 O   0  0  0  0  0  0
  -18.6332  -11.3503  -24.6407 H   0  0  0  0  0  0
  -18.5398  -10.6681  -23.2924 H   0  0  0  0  0  0
  -18.2440  -11.4425  -23.7710 O   0  0  0  0  0  0
  -18.7245  -10.8128  -23.2335 H   0  0  0  0  0  0
  -17.4696  -10.9639  -24.0668 H   0  0  0  0  0  0
  -18.2440  -11.4425  -23.7710 O   0  0  0  0  0  0
  -18.3362  -10.5728  -23.3818 H   0  0  0  0  0  0
  -19.0184  -11.9211  -23.4752 H   0  0  0  0  0  0
  -18.2440  -11.4425  -23.7710 O   0  0  0  0  0  0
  -17.7635  -10.8128  -24.3085 H   0  0  0  0  0  0
  -19.0184  -10.9639  -23.4752 H   0  0  0  0  0  0
  -30.2440    1.0575  -39.2710 O   0  0  0  0  0  0
  -30.7815    0.5770  -38.6413 H   0  0  0  0  0  0
  -29.9482    1.8319  -38.7924 H   0  0  0  0  0  0
  -30.2440    1.0575  -39.2710 O   0  0  0  0  0  0
  -29.3743    0.6683  -39.1788 H   0  0  0  0  0  0
  -30.7226    0.7617  -38.4966 H   0  0  0  0  0  0
  -30.2440    1.0575  -39.2710 O   0  0  0  0  0  0
  -30.6332    0.9653  -38.4013 H   0  0  0  0  0  0
  -30.5398    0.2831  -39.7496 H   0  0  0  0  0  0
  -30.2440    1.0575  -39.2710 O   0  0  0  0  0  0
  -30.2440    0.1309  -39.5110 H   0  0  0  0  0  0
  -30.2440    1.0575  -38.3138 H   0  0  0  0  0  0
  -17.7440   -9.9425  -21.2710 O   0  0  0  0  0  0
  -18.1332  -10.0347  -22.1407 H   0  0  0  0  0  0
  -18.0398  -10.7169  -20.7924 H   0  0  0  0  0  0
  -17.7440   -9.9425  -21.2710 O   0  0  0  0  0  0
  -16.8743  -10.3317  -21.3632 H   0  0  0  0  0  0
  -18.2226  -10.2383  -22.0454 H   0  0  0  0  0  0
  -28.2440   -5.9425  -22.7710 O   0  0  0  0  0  0
  -28.8737   -5.4050  -23.2515 H   0  0  0  0  0  0
  -28.7226   -6.2383  -21.9966 H   0  0  0  0  0  0
  -28.2440   -5.9425  -22.7710 O   0  0  0  0  0  0
  -29.1137   -5.5533  -22.8632 H   0  0  0  0  0  0
  -27.7654   -5.6467  -23.5454 H   0  0  0  0  0  0
  -28.2440   -5.9425  -22.7710 O   0  0  0  0  0  0
  -28.3362   -5.0728  -23.1602 H   0  0  0  0  0  0
  -29.0184   -6.4211  -23.0668 H   0  0  0  0  0  0
  -28.2440   -5.9425  -22.7710 O   0  0  0  0  0  0
  -27.7635   -5.3128  -22.2335 H   0  0  0  0  0  0
  -29.0184   -5.4639  -23.0668 H   0  0  0  0  0  0
  -22.2440   -7.9425  -29.2710 O   0  0  0  0  0  0
  -22.2440   -7.0159  -29.0310 H   0  0  0  0  0  0
  -22.2440   -7.9425  -30.2282 H   0  0  0  0  0  0
  -22.2440   -7.9425  -29.2710 O   0  0  0  0  0  0
  -22.2440   -8.8691  -29.0310 H   0  0  0  0  0  0
  -22.2440   -7.9425  -30.2282 H   0  0  0  0  0  0
  -22.2440   -7.9425  -29.2710 O   0  0  0  0  0  0
  -22.0040   -7.9425  -30.1976 H   0  0  0  0  0  0
  -23.2012   -7.9425  -29.2710 H   0  0  0  0  0  0
  -14.2440   -7.9425  -37.7710 O   0  0  0  0  0  0
  -14.3362   -7.0728  -38.1602 H   0  0  0  0  0  0
  -15.0184   -8.4211  -38.0668 H   0  0  0  0  0  0
  -14.2440   -7.9425  -37.7710 O   0  0  0  0  0  0
  -13.7065   -8.4230  -38.4007 H   0  0  0  0  0  0
  -14.5398   -7.1681  -38.2496 H   0  0  0  0  0  0
  -29.2440   -6.9425  -18.7710 O   0  0  0  0  0  0
  -29.3362   -6.0728  -19.1602 H   0  0  0  0  0  0
  -30.0184   -7.4211  -19.0668 H   0  0  0  0  0  0
  -29.2440   -6.9425  -18.7710 O   0  0  0  0  0  0
  -30.1137   -6.5533  -18.8632 H   0  0  0  0  0  0
  -28.7654   -6.6467  -19.5454 H   0  0  0  0  0  0
  -29.2440   -6.9425  -18.7710 O   0  0  0  0  0  0
  -29.6332   -6.8503  -17.9013 H   0  0  0  0  0  0
  -29.5398   -6.1681  -19.2496 H   0  0  0  0  0  0
  -29.2440   -6.9425  -18.7710 O   0  0  0  0  0  0
  -29.6332   -6.8503  -19.6407 H   0  0  0  0  0  0
  -29.5398   -6.1681  -18.2924 H   0  0  0  0  0  0
  -29.2440   -6.9425  -18.7710 O   0  0  0  0  0  0
  -29.8737   -6.4050  -19.2515 H   0  0  0  0  0  0
  -29.7226   -7.2383  -17.9966 H   0  0  0  0  0  0
  -29.2440   -6.9425  -18.7710 O   0  0  0  0  0  0
  -29.3362   -7.8122  -19.1602 H   0  0  0  0  0  0
  -30.0184   -6.4639  -19.0668 H   0  0  0  0  0  0
  -29.7440   -0.9425  -39.7710 O   0  0  0  0  0  0
  -30.1332   -1.0347  -38.9013 H   0  0  0  0  0  0
  -30.0398   -1.7169  -40.2496 H   0  0  0  0  0  0
  -29.7440   -0.9425  -39.7710 O   0  0  0  0  0  0
  -30.6706   -0.7025  -39.7710 H   0  0  0  0  0  0
  -29.7440   -1.8997  -39.7710 H   0  0  0  0  0  0
  -18.2440  -11.4425  -22.2710 O   0  0  0  0  0  0
  -18.7245  -10.8128  -22.8085 H   0  0  0  0  0  0
  -17.4696  -10.9639  -21.9752 H   0  0  0  0  0  0
  -18.2440  -11.4425  -22.2710 O   0  0  0  0  0  0
  -18.6332  -11.3503  -21.4013 H   0  0  0  0  0  0
  -18.5398  -10.6681  -22.7496 H   0  0  0  0  0  0
  -18.2440  -11.4425  -22.2710 O   0  0  0  0  0  0
  -18.3362  -10.5728  -22.6602 H   0  0  0  0  0  0
  -19.0184  -11.9211  -22.5668 H   0  0  0  0  0  0
  -18.2440  -11.4425  -22.2710 O   0  0  0  0  0  0
  -17.7065  -11.9230  -22.9007 H   0  0  0  0  0  0
  -18.5398  -10.6681  -22.7496 H   0  0  0  0  0  0
  -26.2440   -7.4425  -39.2710 O   0  0  0  0  0  0
  -25.8548   -7.5347  -38.4013 H   0  0  0  0  0  0
  -25.9482   -8.2169  -39.7496 H   0  0  0  0  0  0
  -26.2440   -7.4425  -39.2710 O   0  0  0  0  0  0
  -26.2440   -8.3691  -39.5110 H   0  0  0  0  0  0
  -26.2440   -7.4425  -38.3138 H   0  0  0  0  0  0
  -20.7440   -7.9425  -29.7710 O   0  0  0  0  0  0
  -21.3737   -8.4800  -29.2905 H   0  0  0  0  0  0
  -21.2226   -7.6467  -30.5454 H   0  0  0  0  0  0
  -20.7440   -7.9425  -29.7710 O   0  0  0  0  0  0
  -21.2815   -7.4620  -30.4007 H   0  0  0  0  0  0
  -20.4482   -8.7169  -30.2496 H   0  0  0  0  0  0
  -20.7440   -7.9425  -29.7710 O   0  0  0  0  0  0
  -19.8743   -7.5533  -29.8632 H   0  0  0  0  0  0
  -21.2226   -7.6467  -30.5454 H   0  0  0  0  0  0
  -30.2440   -9.4425  -23.7710 O   0  0  0  0  0  0
  -30.0040   -9.4425  -24.6976 H   0  0  0  0  0  0
  -31.2012   -9.4425  -23.7710 H   0  0  0  0  0  0
  -30.2440   -9.4425  -23.7710 O   0  0  0  0  0  0
  -29.8548   -9.5347  -24.6407 H   0  0  0  0  0  0
  -29.9482  -10.2169  -23.2924 H   0  0  0  0  0  0
  -30.2440   -9.4425  -23.7710 O   0  0  0  0  0  0
  -29.8548   -9.3503  -24.6407 H   0  0  0  0  0  0
  -29.9482   -8.6681  -23.2924 H   0  0  0  0  0  0
  -30.2440   -9.4425  -23.7710 O   0  0  0  0  0  0
  -30.2440   -8.5159  -23.5310 H   0  0  0  0  0  0
  -30.2440   -9.4425  -24.7282 H   0  0  0  0  0  0
  -24.2440   -9.9425  -37.7710 O   0  0  0  0  0  0
  -23.7065  -10.4230  -37.1413 H   0  0  0  0  0  0
  -24.5398   -9.1681  -37.2924 H   0  0  0  0  0  0
  -24.2440   -9.9425  -37.7710 O   0  0  0  0  0  0
  -24.6332   -9.8503  -38.6407 H   0  0  0  0  0  0
  -24.5398   -9.1681  -37.2924 H   0  0  0  0  0  0
  -24.7440   -3.4425  -21.2710 O   0  0  0  0  0  0
  -25.1332   -3.3503  -20.4013 H   0  0  0  0  0  0
  -25.0398   -2.6681  -21.7496 H   0  0  0  0  0  0
  -24.7440   -3.4425  -21.2710 O   0  0  0  0  0  0
  -24.8362   -2.5728  -20.8818 H   0  0  0  0  0  0
  -25.5184   -3.9211  -20.9752 H   0  0  0  0  0  0
  -24.7440   -3.4425  -21.2710 O   0  0  0  0  0  0
  -25.2815   -3.9230  -20.6413 H   0  0  0  0  0  0
  -24.4482   -2.6681  -20.7924 H   0  0  0  0  0  0
  -24.7440   -3.4425  -21.2710 O   0  0  0  0  0  0
  -25.2815   -2.9620  -20.6413 H   0  0  0  0  0  0
  -24.4482   -4.2169  -20.7924 H   0  0  0  0  0  0
  -27.2440   -9.9425  -30.7710 O   0  0  0  0  0  0
  -26.7635   -9.3128  -30.2335 H   0  0  0  0  0  0
  -28.0184   -9.4639  -31.0668 H   0  0  0  0  0  0
  -27.2440   -9.9425  -30.7710 O   0  0  0  0  0  0
  -28.1137   -9.5533  -30.8632 H   0  0  0  0  0  0
  -26.7654   -9.6467  -31.5454 H   0  0  0  0  0  0
  -27.2440   -9.9425  -30.7710 O   0  0  0  0  0  0
  -28.1706  -10.1825  -30.7710 H   0  0  0  0  0  0
  -27.2440   -8.9853  -30.7710 H   0  0  0  0  0  0
  -29.7440  -10.9425  -24.2710 O   0  0  0  0  0  0
  -30.2815  -11.4230  -24.9007 H   0  0  0  0  0  0
  -29.4482  -10.1681  -24.7496 H   0  0  0  0  0  0
  -29.7440  -10.9425  -24.2710 O   0  0  0  0  0  0
  -29.6518  -10.0728  -24.6602 H   0  0  0  0  0  0
  -28.9696  -11.4211  -24.5668 H   0  0  0  0  0  0
  -29.7440  -10.9425  -24.2710 O   0  0  0  0  0  0
  -29.2065  -11.4230  -24.9007 H   0  0  0  0  0  0
  -30.0398  -10.1681  -24.7496 H   0  0  0  0  0  0
  -29.7440  -10.9425  -24.2710 O   0  0  0  0  0  0
  -29.3548  -10.8503  -23.4013 H   0  0  0  0  0  0
  -29.4482  -10.1681  -24.7496 H   0  0  0  0  0  0
  -29.7440  -10.9425  -24.2710 O   0  0  0  0  0  0
  -30.6137  -10.5533  -24.3632 H   0  0  0  0  0  0
  -29.2654  -10.6467  -25.0454 H   0  0  0  0  0  0
  1  2  1  0  0  0
  1  3  1  0  0  0
  4  5  1  0  0  0
  4  6  1  0  0  0
  7  8  1  0  0  0
  7  9  1  0  0  0
 10 11  1  0  0  0
 10 12  1  0  0  0
 13 14  1  0  0  0
 13 15  1  0  0  0
 16 17  1  0  0  0
 16 18  1  0  0  0
 19 20  1  0  0  0
 19 21  1  0  0  0
 22 23  1  0  0  0
 22 24  1  0  0  0
 25 26  1  0  0  0
 25 27  1  0  0  0
 28 29  1  0  0  0
 28 30  1  0  0  0
 31 32  1  0  0  0
 31 33  1  0  0  0
 34 35  1  0  0  0
 34 36  1  0  0  0
 37 38  1  0  0  0
 37 39  1  0  0  0
 40 41  1  0  0  0
 40 42  1  0  0  0
 43 44  1  0  0  0
 43 45  1  0  0  0
 46 47  1  0  0  0
 46 48  1  0  0  0
 49 50  1  0  0  0
 49 51  1  0  0  0
 52 53  1  0  0  0
 52 54  1  0  0  0
 55 56  1  0  0  0
 55 57  1  0  0  0
 58 59  1  0  0  0
 58 60  1  0  0  0
 61 62  1  0  0  0
 61 63  1  0  0  0
 64 65  1  0  0  0
 64 66  1  0  0  0
 67 68  1  0  0  0
 67 69  1  0  0  0
 70 71  1  0  0  0
 70 72  1  0  0  0
 73 74  1  0  0  0
 73 75  1  0  0  0
 76 77  1  0  0  0
 76 78  1  0  0  0
 79 80  1  0  0  0
 79 81  1  0  0  0
 82 83  1  0  0  0
 82 84  1  0  0  0
 85 86  1  0  0  0
 85 87  1  0  0  0
 88 89  1  0  0  0
 88 90  1  0  0  0
 91 92  1  0  0  0
 91 93  1  0  0  0
 94 95  1  0  0  0
 94 96  1  0  0  0
 97 98  1  0  0  0
 97 99  1  0  0  0
100101  1  0  0  0
100102  1  0  0  0
103104  1  0  0  0
103105  1  0  0  0
106107  1  0  0  0
106108  1  0  0  0
109110  1  0  0  0
109111  1  0  0  0
112113  1  0  0  0
112114  1  0  0  0
115116  1  0  0  0
115117  1  0  0  0
118119  1  0  0  0
118120  1  0  0  0
121122  1  0  0  0
121123  1  0  0  0
124125  1  0  0  0
124126  1  0  0  0
127128  1  0  0  0
127129  1  0  0  0
130131  1  0  0  0
130132  1  0  0  0
133134  1  0  0  0
133135  1  0  0  0
136137  1  0  0  0
136138  1  0  0  0
139140  1  0  0  0
139141  1  0  0  0
142143  1  0  0  0
142144  1  0  0  0
145146  1  0  0  0
145147  1  0  0  0
148149  1  0  0  0
148150  1  0  0  0
151152  1  0  0  0
151153  1  0  0  0
154155  1  0  0  0
154156  1  0  0  0
157158  1  0  0  0
157159  1  0  0  0
160161  1  0  0  0
160162  1  0  0  0
163164  1  0  0  0
163165  1  0  0  0
166167  1  0  0  0
166168  1  0  0  0
169170  1  0  0  0
169171  1  0  0  0
172173  1  0  0  0
172174  1  0  0  0
175176  1  0  0  0
175177  1  0  0  0
178179  1  0  0  0
178180  1  0  0  0
181182  1  0  0  0
181183  1  0  0  0
184185  1  0  0  0
184186  1  0  0  0
187188  1  0  0  0
187189  1  0  0  0
190191  1  0  0  0
190192  1  0  0  0
193194  1  0  0  0
193195  1  0  0  0
196197  1  0  0  0
196198  1  0  0  0
199200  1  0  0  0
199201  1  0  0  0
202203  1  0  0  0
202204  1  0  0  0
205206  1  0  0  0
205207  1  0  0  0
208209  1  0  0  0
208210  1  0  0  0
211212  1  0  0  0
211213  1  0  0  0
214215  1  0  0  0
214216  1  0  0  0
217218  1  0  0  0
217219  1  0  0  0
220221  1  0  0  0
220222  1  0  0  0
223224  1  0  0  0
223225  1  0  0  0
226227  1  0  0  0
226228  1  0  0  0
229230  1  0  0  0
229231  1  0  0  0
232233  1  0  0  0
232234  1  0  0  0
235236  1  0  0  0
235237  1  0  0  0
238239  1  0  0  0
238240  1  0  0  0
241242  1  0  0  0
241243  1  0  0  0
244245  1  0  0  0
244246  1  0  0  0
247248  1  0  0  0
247249  1  0  0  0
250251  1  0  0  0
250252  1  0  0  0
253254  1  0  0  0
253255  1  0  0  0
256257  1  0  0  0
256258  1  0  0  0
259260  1  0  0  0
259261  1  0  0  0
262263  1  0  0  0
262264  1  0  0  0
265266  1  0  0  0
265267  1  0  0  0
268269  1  0  0  0
268270  1  0  0  0
271272  1  0  0  0
271273  1  0  0  0
274275  1  0  0  0
274276  1  0  0  0
277278  1  0  0  0
277279  1  0  0  0
280281  1  0  0  0
280282  1  0  0  0
283284  1  0  0  0
283285  1  0  0  0
286287  1  0  0  0
286288  1  0  0  0
289290  1  0  0  0
289291  1  0  0  0
292293  1  0  0  0
292294  1  0  0  0
295296  1  0  0  0
295297  1  0  0  0
298299  1  0  0  0
298300  1  0  0  0
301302  1  0  0  0
301303  1  0  0  0
304305  1  0  0  0
304306  1  0  0  0
307308  1  0  0  0
307309  1  0  0  0
310311  1  0  0  0
310312  1  0  0  0
313314  1  0  0  0
313315  1  0  0  0
316317  1  0  0  0
316318  1  0  0  0
319320  1  0  0  0
319321  1  0  0  0
322323  1  0  0  0
322324  1  0  0  0
325326  1  0  0  0
325327  1  0  0  0
328329  1  0  0  0
328330  1  0  0  0
331332  1  0  0  0
331333  1  0  0  0
334335  1  0  0  0
334336  1  0  0  0
337338  1  0  0  0
337339  1  0  0  0
340341  1  0  0  0
340342  1  0  0  0
343344  1  0  0  0
343345  1  0  0  0
346347  1  0  0  0
346348  1  0  0  0
349350  1  0  0  0
349351  1  0  0  0
352353  1  0  0  0
352354  1  0  0  0
355356  1  0  0  0
355357  1  0  0  0
358359  1  0  0  0
358360  1  0  0  0
361362  1  0  0  0
361363  1  0  0  0
364365  1  0  0  0
364366  1  0  0  0
367368  1  0  0  0
367369  1  0  0  0
370371  1  0  0  0
370372  1  0  0  0
373374  1  0  0  0
373375  1  0  0  0
376377  1  0  0  0
376378  1  0  0  0
M  END
> <s_m_entry_id>
6416

> <s_m_entry_name>
SZMAP_Mpro_6M03.6_merged126

> <s_m_Source_Path>
C:\Users\ifige\Documents\lab_projects\Mpro\szmap\6M03\SZMAP_6M03

> <s_m_Source_File>
SZMAP_Mpro_6M03.mae

> <i_m_Source_File_Index>
6

> <szmap_neut_diff_free_energy>
-8.013

> <szmap_vdw>
9.656

> <szmap_order>
0.439

> <szmap_probability>
0.43

$$$$
