6m2q_yellow_waters
                    3D
 Structure written by MMmdl.
411274  0  0  1  0            999 V2000
  -27.7440   -7.9425  -40.2710 O   0  0  0  0  0  0
  -28.2245   -8.5722  -39.7335 H   0  0  0  0  0  0
  -26.9696   -8.4211  -40.5668 H   0  0  0  0  0  0
  -27.7440   -7.9425  -40.2710 O   0  0  0  0  0  0
  -26.8743   -8.3317  -40.1788 H   0  0  0  0  0  0
  -28.2226   -8.2383  -39.4966 H   0  0  0  0  0  0
  -12.7440   -4.9425  -18.2710 O   0  0  0  0  0  0
  -12.1143   -5.4800  -18.7515 H   0  0  0  0  0  0
  -12.2654   -4.6467  -17.4966 H   0  0  0  0  0  0
  -12.7440   -4.9425  -18.2710 O   0  0  0  0  0  0
  -12.3548   -5.0347  -19.1407 H   0  0  0  0  0  0
  -12.4482   -5.7169  -17.7924 H   0  0  0  0  0  0
  -12.7440   -4.9425  -18.2710 O   0  0  0  0  0  0
  -12.1143   -4.4050  -17.7905 H   0  0  0  0  0  0
  -12.2654   -5.2383  -19.0454 H   0  0  0  0  0  0
  -26.7440   -7.9425  -26.2710 O   0  0  0  0  0  0
  -26.3548   -7.8503  -27.1407 H   0  0  0  0  0  0
  -26.4482   -7.1681  -25.7924 H   0  0  0  0  0  0
  -26.7440   -7.9425  -26.2710 O   0  0  0  0  0  0
  -25.8174   -8.1825  -26.2710 H   0  0  0  0  0  0
  -26.7440   -6.9853  -26.2710 H   0  0  0  0  0  0
  -26.7440   -7.9425  -26.2710 O   0  0  0  0  0  0
  -26.6518   -7.0728  -26.6602 H   0  0  0  0  0  0
  -25.9696   -8.4211  -26.5668 H   0  0  0  0  0  0
  -26.7440   -7.9425  -26.2710 O   0  0  0  0  0  0
  -26.3548   -7.8503  -25.4013 H   0  0  0  0  0  0
  -26.4482   -7.1681  -26.7496 H   0  0  0  0  0  0
  -27.2440   -2.4425  -26.2710 O   0  0  0  0  0  0
  -27.3362   -3.3122  -26.6602 H   0  0  0  0  0  0
  -28.0184   -1.9639  -26.5668 H   0  0  0  0  0  0
  -12.7440   -7.4425  -24.7710 O   0  0  0  0  0  0
  -13.3737   -6.9050  -24.2905 H   0  0  0  0  0  0
  -13.2226   -7.7383  -25.5454 H   0  0  0  0  0  0
  -22.7440  -11.4425  -34.7710 O   0  0  0  0  0  0
  -22.6518  -12.3122  -35.1602 H   0  0  0  0  0  0
  -21.9696  -10.9639  -35.0668 H   0  0  0  0  0  0
  -22.7440  -11.4425  -34.7710 O   0  0  0  0  0  0
  -22.2065  -10.9620  -35.4007 H   0  0  0  0  0  0
  -23.0398  -12.2169  -35.2496 H   0  0  0  0  0  0
  -22.7440  -11.4425  -34.7710 O   0  0  0  0  0  0
  -22.9840  -11.4425  -35.6976 H   0  0  0  0  0  0
  -21.7868  -11.4425  -34.7710 H   0  0  0  0  0  0
  -22.7440  -11.4425  -34.7710 O   0  0  0  0  0  0
  -21.8743  -11.8317  -34.8632 H   0  0  0  0  0  0
  -23.2226  -11.7383  -35.5454 H   0  0  0  0  0  0
  -15.2440  -10.9425  -27.7710 O   0  0  0  0  0  0
  -16.1706  -11.1825  -27.7710 H   0  0  0  0  0  0
  -15.2440   -9.9853  -27.7710 H   0  0  0  0  0  0
  -15.2440  -10.9425  -27.7710 O   0  0  0  0  0  0
  -14.3174  -11.1825  -27.7710 H   0  0  0  0  0  0
  -15.2440   -9.9853  -27.7710 H   0  0  0  0  0  0
  -20.7440  -11.4425  -24.7710 O   0  0  0  0  0  0
  -20.2065  -10.9620  -25.4007 H   0  0  0  0  0  0
  -21.0398  -12.2169  -25.2496 H   0  0  0  0  0  0
  -20.7440  -11.4425  -24.7710 O   0  0  0  0  0  0
  -21.2815  -10.9620  -25.4007 H   0  0  0  0  0  0
  -20.4482  -12.2169  -25.2496 H   0  0  0  0  0  0
  -20.7440  -11.4425  -24.7710 O   0  0  0  0  0  0
  -21.2815  -11.9230  -25.4007 H   0  0  0  0  0  0
  -20.4482  -10.6681  -25.2496 H   0  0  0  0  0  0
  -20.7440  -11.4425  -24.7710 O   0  0  0  0  0  0
  -20.2065  -11.9230  -25.4007 H   0  0  0  0  0  0
  -21.0398  -10.6681  -25.2496 H   0  0  0  0  0  0
  -20.7440  -11.4425  -20.2710 O   0  0  0  0  0  0
  -19.8743  -11.8317  -20.1788 H   0  0  0  0  0  0
  -21.2226  -11.7383  -19.4966 H   0  0  0  0  0  0
  -20.7440  -11.4425  -20.2710 O   0  0  0  0  0  0
  -20.2065  -10.9620  -19.6413 H   0  0  0  0  0  0
  -21.0398  -12.2169  -19.7924 H   0  0  0  0  0  0
  -20.7440  -11.4425  -20.2710 O   0  0  0  0  0  0
  -20.7440  -12.3691  -20.5110 H   0  0  0  0  0  0
  -20.7440  -11.4425  -19.3138 H   0  0  0  0  0  0
  -20.7440  -11.4425  -20.2710 O   0  0  0  0  0  0
  -21.6137  -11.8317  -20.1788 H   0  0  0  0  0  0
  -20.2654  -11.7383  -19.4966 H   0  0  0  0  0  0
  -15.7440  -10.4425  -26.2710 O   0  0  0  0  0  0
  -15.2635   -9.8128  -26.8085 H   0  0  0  0  0  0
  -16.5184   -9.9639  -25.9752 H   0  0  0  0  0  0
  -15.7440  -10.4425  -26.2710 O   0  0  0  0  0  0
  -16.2815  -10.9230  -26.9007 H   0  0  0  0  0  0
  -15.4482   -9.6681  -26.7496 H   0  0  0  0  0  0
  -19.7440   -4.9425  -35.7710 O   0  0  0  0  0  0
  -19.3548   -5.0347  -34.9013 H   0  0  0  0  0  0
  -19.4482   -5.7169  -36.2496 H   0  0  0  0  0  0
  -21.7440   -4.4425  -23.2710 O   0  0  0  0  0  0
  -22.6137   -4.8317  -23.3632 H   0  0  0  0  0  0
  -21.2654   -4.7383  -24.0454 H   0  0  0  0  0  0
  -21.7440   -4.4425  -23.2710 O   0  0  0  0  0  0
  -21.5040   -4.4425  -24.1976 H   0  0  0  0  0  0
  -22.7012   -4.4425  -23.2710 H   0  0  0  0  0  0
  -22.2440   -2.4425  -28.2710 O   0  0  0  0  0  0
  -22.7245   -1.8128  -28.8085 H   0  0  0  0  0  0
  -21.4696   -1.9639  -27.9752 H   0  0  0  0  0  0
  -16.7440   -9.9425  -28.7710 O   0  0  0  0  0  0
  -15.8743   -9.5533  -28.6788 H   0  0  0  0  0  0
  -17.2226   -9.6467  -27.9966 H   0  0  0  0  0  0
  -16.7440   -9.9425  -28.7710 O   0  0  0  0  0  0
  -16.6518   -9.0728  -28.3818 H   0  0  0  0  0  0
  -15.9696  -10.4211  -28.4752 H   0  0  0  0  0  0
  -16.7440   -9.9425  -28.7710 O   0  0  0  0  0  0
  -17.2245   -9.3128  -29.3085 H   0  0  0  0  0  0
  -15.9696   -9.4639  -28.4752 H   0  0  0  0  0  0
  -16.7440   -9.9425  -28.7710 O   0  0  0  0  0  0
  -16.1143   -9.4050  -28.2905 H   0  0  0  0  0  0
  -16.2654  -10.2383  -29.5454 H   0  0  0  0  0  0
  -16.7440   -9.9425  -28.7710 O   0  0  0  0  0  0
  -16.2635   -9.3128  -28.2335 H   0  0  0  0  0  0
  -17.5184   -9.4639  -29.0668 H   0  0  0  0  0  0
  -17.2440   -9.9425  -27.7710 O   0  0  0  0  0  0
  -17.7245   -9.3128  -28.3085 H   0  0  0  0  0  0
  -16.4696   -9.4639  -27.4752 H   0  0  0  0  0  0
  -17.2440   -9.9425  -27.7710 O   0  0  0  0  0  0
  -16.3743   -9.5533  -27.6788 H   0  0  0  0  0  0
  -17.7226   -9.6467  -26.9966 H   0  0  0  0  0  0
  -14.2440   -8.9425  -25.2710 O   0  0  0  0  0  0
  -14.7815   -9.4230  -25.9007 H   0  0  0  0  0  0
  -13.9482   -8.1681  -25.7496 H   0  0  0  0  0  0
  -31.2440   -8.4425  -25.2710 O   0  0  0  0  0  0
  -30.3743   -8.8317  -25.1788 H   0  0  0  0  0  0
  -31.7226   -8.7383  -24.4966 H   0  0  0  0  0  0
  -26.2440    2.0575  -36.7710 O   0  0  0  0  0  0
  -25.8548    2.1497  -35.9013 H   0  0  0  0  0  0
  -25.9482    2.8319  -37.2496 H   0  0  0  0  0  0
  -26.2440    2.0575  -36.7710 O   0  0  0  0  0  0
  -25.6143    1.5200  -37.2515 H   0  0  0  0  0  0
  -25.7654    2.3533  -35.9966 H   0  0  0  0  0  0
  -19.7440   -4.4425  -28.7710 O   0  0  0  0  0  0
  -19.8362   -5.3122  -28.3818 H   0  0  0  0  0  0
  -20.5184   -3.9639  -28.4752 H   0  0  0  0  0  0
  -19.7440   -4.4425  -28.7710 O   0  0  0  0  0  0
  -20.3737   -4.9800  -29.2515 H   0  0  0  0  0  0
  -20.2226   -4.1467  -27.9966 H   0  0  0  0  0  0
  -19.7440   -4.4425  -28.7710 O   0  0  0  0  0  0
  -19.5040   -4.4425  -27.8444 H   0  0  0  0  0  0
  -20.7012   -4.4425  -28.7710 H   0  0  0  0  0  0
  -28.2440   -4.9425  -19.2710 O   0  0  0  0  0  0
  -29.1137   -5.3317  -19.1788 H   0  0  0  0  0  0
  -27.7654   -5.2383  -18.4966 H   0  0  0  0  0  0
  -28.2440   -4.9425  -19.2710 O   0  0  0  0  0  0
  -27.7635   -5.5722  -18.7335 H   0  0  0  0  0  0
  -29.0184   -5.4211  -19.5668 H   0  0  0  0  0  0
  -15.7440   -8.9425  -25.2710 O   0  0  0  0  0  0
  -15.7440   -8.0159  -25.0310 H   0  0  0  0  0  0
  -15.7440   -8.9425  -26.2282 H   0  0  0  0  0  0
  -15.7440   -8.9425  -25.2710 O   0  0  0  0  0  0
  -15.3548   -8.8503  -26.1407 H   0  0  0  0  0  0
  -15.4482   -8.1681  -24.7924 H   0  0  0  0  0  0
  -17.2440   -8.9425  -26.2710 O   0  0  0  0  0  0
  -16.6143   -9.4800  -25.7905 H   0  0  0  0  0  0
  -16.7654   -8.6467  -27.0454 H   0  0  0  0  0  0
  -17.2440   -8.9425  -26.2710 O   0  0  0  0  0  0
  -16.8548   -8.8503  -27.1407 H   0  0  0  0  0  0
  -16.9482   -8.1681  -25.7924 H   0  0  0  0  0  0
  -17.2440   -8.9425  -26.2710 O   0  0  0  0  0  0
  -16.6143   -8.4050  -25.7905 H   0  0  0  0  0  0
  -16.7654   -9.2383  -27.0454 H   0  0  0  0  0  0
  -27.2440   -4.4425  -20.7710 O   0  0  0  0  0  0
  -26.3174   -4.2025  -20.7710 H   0  0  0  0  0  0
  -27.2440   -5.3997  -20.7710 H   0  0  0  0  0  0
  -27.2440   -4.4425  -20.7710 O   0  0  0  0  0  0
  -27.1518   -5.3122  -21.1602 H   0  0  0  0  0  0
  -26.4696   -3.9639  -21.0668 H   0  0  0  0  0  0
  -17.2440   -9.4425  -21.7710 O   0  0  0  0  0  0
  -16.8548   -9.5347  -22.6407 H   0  0  0  0  0  0
  -16.9482  -10.2169  -21.2924 H   0  0  0  0  0  0
  -17.2440   -9.4425  -21.7710 O   0  0  0  0  0  0
  -17.2440  -10.3691  -21.5310 H   0  0  0  0  0  0
  -17.2440   -9.4425  -22.7282 H   0  0  0  0  0  0
  -27.2440   -9.9425  -31.2710 O   0  0  0  0  0  0
  -27.7245   -9.3128  -30.7335 H   0  0  0  0  0  0
  -26.4696   -9.4639  -31.5668 H   0  0  0  0  0  0
  -22.2440   -9.4425  -40.2710 O   0  0  0  0  0  0
  -22.3362  -10.3122  -40.6602 H   0  0  0  0  0  0
  -23.0184   -8.9639  -40.5668 H   0  0  0  0  0  0
  -22.2440   -9.4425  -40.2710 O   0  0  0  0  0  0
  -22.8737   -8.9050  -40.7515 H   0  0  0  0  0  0
  -22.7226   -9.7383  -39.4966 H   0  0  0  0  0  0
  -12.2440   -8.9425  -26.7710 O   0  0  0  0  0  0
  -13.1706   -9.1825  -26.7710 H   0  0  0  0  0  0
  -12.2440   -7.9853  -26.7710 H   0  0  0  0  0  0
  -15.7440   -7.4425  -38.7710 O   0  0  0  0  0  0
  -15.6518   -8.3122  -39.1602 H   0  0  0  0  0  0
  -14.9696   -6.9639  -39.0668 H   0  0  0  0  0  0
  -15.7440   -7.4425  -38.7710 O   0  0  0  0  0  0
  -14.8174   -7.2025  -38.7710 H   0  0  0  0  0  0
  -15.7440   -8.3997  -38.7710 H   0  0  0  0  0  0
  -15.7440   -7.4425  -38.7710 O   0  0  0  0  0  0
  -15.1143   -6.9050  -38.2905 H   0  0  0  0  0  0
  -15.2654   -7.7383  -39.5454 H   0  0  0  0  0  0
  -18.7440   -7.9425  -31.2710 O   0  0  0  0  0  0
  -17.8174   -8.1825  -31.2710 H   0  0  0  0  0  0
  -18.7440   -6.9853  -31.2710 H   0  0  0  0  0  0
  -18.7440   -7.9425  -31.2710 O   0  0  0  0  0  0
  -19.2245   -7.3128  -30.7335 H   0  0  0  0  0  0
  -17.9696   -7.4639  -31.5668 H   0  0  0  0  0  0
  -18.7440   -7.9425  -31.2710 O   0  0  0  0  0  0
  -18.3548   -7.8503  -30.4013 H   0  0  0  0  0  0
  -18.4482   -7.1681  -31.7496 H   0  0  0  0  0  0
  -25.2440   -8.9425  -29.2710 O   0  0  0  0  0  0
  -25.2440   -8.0159  -29.0310 H   0  0  0  0  0  0
  -25.2440   -8.9425  -30.2282 H   0  0  0  0  0  0
  -25.2440   -8.9425  -29.2710 O   0  0  0  0  0  0
  -25.4840   -8.9425  -30.1976 H   0  0  0  0  0  0
  -24.2868   -8.9425  -29.2710 H   0  0  0  0  0  0
  -25.2440   -8.9425  -29.2710 O   0  0  0  0  0  0
  -25.2440   -9.8691  -29.0310 H   0  0  0  0  0  0
  -25.2440   -8.9425  -30.2282 H   0  0  0  0  0  0
  -29.2440    1.0575  -38.2710 O   0  0  0  0  0  0
  -30.1137    0.6683  -38.1788 H   0  0  0  0  0  0
  -28.7654    0.7617  -37.4966 H   0  0  0  0  0  0
  -29.2440    1.0575  -38.2710 O   0  0  0  0  0  0
  -29.8737    1.5950  -38.7515 H   0  0  0  0  0  0
  -29.7226    0.7617  -37.4966 H   0  0  0  0  0  0
  -29.2440    1.0575  -38.2710 O   0  0  0  0  0  0
  -29.3362    0.1878  -37.8818 H   0  0  0  0  0  0
  -30.0184    1.5361  -37.9752 H   0  0  0  0  0  0
  -29.2440    1.0575  -38.2710 O   0  0  0  0  0  0
  -29.6332    0.9653  -37.4013 H   0  0  0  0  0  0
  -29.5398    0.2831  -38.7496 H   0  0  0  0  0  0
  -29.2440    1.0575  -38.2710 O   0  0  0  0  0  0
  -29.7815    0.5770  -37.6413 H   0  0  0  0  0  0
  -28.9482    1.8319  -37.7924 H   0  0  0  0  0  0
  -20.2440   -8.4425  -26.2710 O   0  0  0  0  0  0
  -20.2440   -7.5159  -26.5110 H   0  0  0  0  0  0
  -20.2440   -8.4425  -25.3138 H   0  0  0  0  0  0
  -20.2440   -8.4425  -26.2710 O   0  0  0  0  0  0
  -20.4840   -8.4425  -25.3444 H   0  0  0  0  0  0
  -19.2868   -8.4425  -26.2710 H   0  0  0  0  0  0
  -20.2440   -8.4425  -26.2710 O   0  0  0  0  0  0
  -20.2440   -9.3691  -26.5110 H   0  0  0  0  0  0
  -20.2440   -8.4425  -25.3138 H   0  0  0  0  0  0
  -29.7440   -0.9425  -39.2710 O   0  0  0  0  0  0
  -30.3737   -1.4800  -39.7515 H   0  0  0  0  0  0
  -30.2226   -0.6467  -38.4966 H   0  0  0  0  0  0
  -19.7440   -6.9425  -31.2710 O   0  0  0  0  0  0
  -18.8743   -6.5533  -31.1788 H   0  0  0  0  0  0
  -20.2226   -6.6467  -30.4966 H   0  0  0  0  0  0
  -19.7440   -6.9425  -31.2710 O   0  0  0  0  0  0
  -20.2245   -6.3128  -30.7335 H   0  0  0  0  0  0
  -18.9696   -6.4639  -31.5668 H   0  0  0  0  0  0
  -19.7440   -6.9425  -31.2710 O   0  0  0  0  0  0
  -18.8743   -6.5533  -31.3632 H   0  0  0  0  0  0
  -20.2226   -6.6467  -32.0454 H   0  0  0  0  0  0
  -19.7440   -6.9425  -31.2710 O   0  0  0  0  0  0
  -18.8174   -6.7025  -31.2710 H   0  0  0  0  0  0
  -19.7440   -7.8997  -31.2710 H   0  0  0  0  0  0
  -17.2440   -3.4425  -25.7710 O   0  0  0  0  0  0
  -17.7245   -2.8128  -26.3085 H   0  0  0  0  0  0
  -16.4696   -2.9639  -25.4752 H   0  0  0  0  0  0
  -17.2440   -3.4425  -25.7710 O   0  0  0  0  0  0
  -17.7245   -2.8128  -25.2335 H   0  0  0  0  0  0
  -16.4696   -2.9639  -26.0668 H   0  0  0  0  0  0
  -26.2440   -7.9425  -29.7710 O   0  0  0  0  0  0
  -27.1137   -8.3317  -29.8632 H   0  0  0  0  0  0
  -25.7654   -8.2383  -30.5454 H   0  0  0  0  0  0
  -19.7440   -5.9425  -32.2710 O   0  0  0  0  0  0
  -19.9840   -5.9425  -31.3444 H   0  0  0  0  0  0
  -18.7868   -5.9425  -32.2710 H   0  0  0  0  0  0
  -19.7440   -5.9425  -32.2710 O   0  0  0  0  0  0
  -19.1143   -5.4050  -32.7515 H   0  0  0  0  0  0
  -19.2654   -6.2383  -31.4966 H   0  0  0  0  0  0
  -19.7440   -5.9425  -32.2710 O   0  0  0  0  0  0
  -19.1143   -6.4800  -32.7515 H   0  0  0  0  0  0
  -19.2654   -5.6467  -31.4966 H   0  0  0  0  0  0
  -24.7440   -9.9425  -37.2710 O   0  0  0  0  0  0
  -24.6518   -9.0728  -36.8818 H   0  0  0  0  0  0
  -23.9696  -10.4211  -36.9752 H   0  0  0  0  0  0
  -24.7440   -9.9425  -37.2710 O   0  0  0  0  0  0
  -24.2635   -9.3128  -36.7335 H   0  0  0  0  0  0
  -25.5184   -9.4639  -37.5668 H   0  0  0  0  0  0
  -24.7440   -9.9425  -37.2710 O   0  0  0  0  0  0
  -24.7440   -9.0159  -37.0310 H   0  0  0  0  0  0
  -24.7440   -9.9425  -38.2282 H   0  0  0  0  0  0
  -31.2440   -5.9425  -23.2710 O   0  0  0  0  0  0
  -30.3174   -6.1825  -23.2710 H   0  0  0  0  0  0
  -31.2440   -4.9853  -23.2710 H   0  0  0  0  0  0
  -24.7440   -7.4425  -29.7710 O   0  0  0  0  0  0
  -24.2065   -6.9620  -30.4007 H   0  0  0  0  0  0
  -25.0398   -8.2169  -30.2496 H   0  0  0  0  0  0
  -24.7440   -7.4425  -29.7710 O   0  0  0  0  0  0
  -23.8743   -7.8317  -29.8632 H   0  0  0  0  0  0
  -25.2226   -7.7383  -30.5454 H   0  0  0  0  0  0
  -24.7440   -7.4425  -29.7710 O   0  0  0  0  0  0
  -25.2245   -8.0722  -30.3085 H   0  0  0  0  0  0
  -23.9696   -7.9211  -29.4752 H   0  0  0  0  0  0
  -31.2440   -0.9425  -39.7710 O   0  0  0  0  0  0
  -30.8548   -1.0347  -38.9013 H   0  0  0  0  0  0
  -30.9482   -1.7169  -40.2496 H   0  0  0  0  0  0
  -30.7440    2.5575  -37.7710 O   0  0  0  0  0  0
  -30.7440    1.6309  -37.5310 H   0  0  0  0  0  0
  -30.7440    2.5575  -38.7282 H   0  0  0  0  0  0
  -30.7440    2.5575  -37.7710 O   0  0  0  0  0  0
  -29.8174    2.7975  -37.7710 H   0  0  0  0  0  0
  -30.7440    1.6003  -37.7710 H   0  0  0  0  0  0
  -29.7440  -10.4425  -24.2710 O   0  0  0  0  0  0
  -29.2065   -9.9620  -24.9007 H   0  0  0  0  0  0
  -30.0398  -11.2169  -24.7496 H   0  0  0  0  0  0
  -29.7440  -10.4425  -24.2710 O   0  0  0  0  0  0
  -30.6137  -10.0533  -24.3632 H   0  0  0  0  0  0
  -29.2654  -10.1467  -25.0454 H   0  0  0  0  0  0
  -29.7440  -10.4425  -24.2710 O   0  0  0  0  0  0
  -29.3548  -10.3503  -25.1407 H   0  0  0  0  0  0
  -29.4482   -9.6681  -23.7924 H   0  0  0  0  0  0
  -29.7440  -10.4425  -24.2710 O   0  0  0  0  0  0
  -30.2815  -10.9230  -24.9007 H   0  0  0  0  0  0
  -29.4482   -9.6681  -24.7496 H   0  0  0  0  0  0
  -25.7440  -11.4425  -30.7710 O   0  0  0  0  0  0
  -26.6706  -11.6825  -30.7710 H   0  0  0  0  0  0
  -25.7440  -10.4853  -30.7710 H   0  0  0  0  0  0
  -25.7440  -11.4425  -30.7710 O   0  0  0  0  0  0
  -25.2635  -10.8128  -30.2335 H   0  0  0  0  0  0
  -26.5184  -10.9639  -31.0668 H   0  0  0  0  0  0
  -25.2440   -8.9425  -38.2710 O   0  0  0  0  0  0
  -26.1137   -8.5533  -38.1788 H   0  0  0  0  0  0
  -24.7654   -8.6467  -37.4966 H   0  0  0  0  0  0
  -25.2440   -8.9425  -38.2710 O   0  0  0  0  0  0
  -25.1518   -8.0728  -37.8818 H   0  0  0  0  0  0
  -24.4696   -9.4211  -37.9752 H   0  0  0  0  0  0
  -25.2440   -8.9425  -38.2710 O   0  0  0  0  0  0
  -24.7065   -9.4230  -37.6413 H   0  0  0  0  0  0
  -25.5398   -8.1681  -37.7924 H   0  0  0  0  0  0
  -25.2440   -8.9425  -38.2710 O   0  0  0  0  0  0
  -24.8548   -8.8503  -37.4013 H   0  0  0  0  0  0
  -24.9482   -8.1681  -38.7496 H   0  0  0  0  0  0
  -16.2440   -5.9425  -25.2710 O   0  0  0  0  0  0
  -16.4840   -5.9425  -24.3444 H   0  0  0  0  0  0
  -15.2868   -5.9425  -25.2710 H   0  0  0  0  0  0
  -16.2440   -5.9425  -25.2710 O   0  0  0  0  0  0
  -15.6143   -5.4050  -25.7515 H   0  0  0  0  0  0
  -15.7654   -6.2383  -24.4966 H   0  0  0  0  0  0
  -19.2440   -6.9425  -25.2710 O   0  0  0  0  0  0
  -20.1137   -7.3317  -25.1788 H   0  0  0  0  0  0
  -18.7654   -7.2383  -24.4966 H   0  0  0  0  0  0
  -19.2440   -6.9425  -25.2710 O   0  0  0  0  0  0
  -18.7065   -6.4620  -24.6413 H   0  0  0  0  0  0
  -19.5398   -7.7169  -24.7924 H   0  0  0  0  0  0
  -19.2440   -6.9425  -25.2710 O   0  0  0  0  0  0
  -19.3362   -7.8122  -24.8818 H   0  0  0  0  0  0
  -20.0184   -6.4639  -24.9752 H   0  0  0  0  0  0
  -19.2440   -6.9425  -25.2710 O   0  0  0  0  0  0
  -19.7245   -7.5722  -24.7335 H   0  0  0  0  0  0
  -18.4696   -7.4211  -25.5668 H   0  0  0  0  0  0
  -19.2440   -6.9425  -25.2710 O   0  0  0  0  0  0
  -19.6332   -7.0347  -26.1407 H   0  0  0  0  0  0
  -19.5398   -7.7169  -24.7924 H   0  0  0  0  0  0
  -20.2440   -6.4425  -25.2710 O   0  0  0  0  0  0
  -20.1518   -7.3122  -24.8818 H   0  0  0  0  0  0
  -19.4696   -5.9639  -24.9752 H   0  0  0  0  0  0
  -20.2440   -6.4425  -25.2710 O   0  0  0  0  0  0
  -20.3362   -7.3122  -24.8818 H   0  0  0  0  0  0
  -21.0184   -5.9639  -24.9752 H   0  0  0  0  0  0
  -20.2440   -6.4425  -25.2710 O   0  0  0  0  0  0
  -20.7245   -7.0722  -24.7335 H   0  0  0  0  0  0
  -19.4696   -6.9211  -25.5668 H   0  0  0  0  0  0
  -24.2440   -3.9425  -18.7710 O   0  0  0  0  0  0
  -24.3362   -3.0728  -19.1602 H   0  0  0  0  0  0
  -25.0184   -4.4211  -19.0668 H   0  0  0  0  0  0
  -24.2440   -3.9425  -18.7710 O   0  0  0  0  0  0
  -24.6332   -3.8503  -17.9013 H   0  0  0  0  0  0
  -24.5398   -3.1681  -19.2496 H   0  0  0  0  0  0
  -24.2440   -3.9425  -18.7710 O   0  0  0  0  0  0
  -24.8737   -3.4050  -19.2515 H   0  0  0  0  0  0
  -24.7226   -4.2383  -17.9966 H   0  0  0  0  0  0
  -24.2440   -3.9425  -18.7710 O   0  0  0  0  0  0
  -24.3362   -4.8122  -19.1602 H   0  0  0  0  0  0
  -25.0184   -3.4639  -19.0668 H   0  0  0  0  0  0
  -21.7440   -6.9425  -25.2710 O   0  0  0  0  0  0
  -21.1143   -7.4800  -24.7905 H   0  0  0  0  0  0
  -21.2654   -6.6467  -26.0454 H   0  0  0  0  0  0
  -21.7440   -6.9425  -25.2710 O   0  0  0  0  0  0
  -22.2245   -7.5722  -25.8085 H   0  0  0  0  0  0
  -20.9696   -7.4211  -24.9752 H   0  0  0  0  0  0
  -21.7440   -6.9425  -25.2710 O   0  0  0  0  0  0
  -21.6518   -6.0728  -24.8818 H   0  0  0  0  0  0
  -20.9696   -7.4211  -24.9752 H   0  0  0  0  0  0
  -21.7440   -6.9425  -25.2710 O   0  0  0  0  0  0
  -20.8743   -7.3317  -25.1788 H   0  0  0  0  0  0
  -22.2226   -7.2383  -24.4966 H   0  0  0  0  0  0
  -21.7440   -6.9425  -25.2710 O   0  0  0  0  0  0
  -21.6518   -7.8122  -24.8818 H   0  0  0  0  0  0
  -20.9696   -6.4639  -24.9752 H   0  0  0  0  0  0
  -12.2440   -5.4425  -38.7710 O   0  0  0  0  0  0
  -13.1706   -5.2025  -38.7710 H   0  0  0  0  0  0
  -12.2440   -6.3997  -38.7710 H   0  0  0  0  0  0
  -12.2440   -5.4425  -38.7710 O   0  0  0  0  0  0
  -13.1137   -5.0533  -38.6788 H   0  0  0  0  0  0
  -11.7654   -5.1467  -37.9966 H   0  0  0  0  0  0
  -24.7440   -4.4425  -20.2710 O   0  0  0  0  0  0
  -25.1332   -4.3503  -21.1407 H   0  0  0  0  0  0
  -25.0398   -3.6681  -19.7924 H   0  0  0  0  0  0
  -24.7440   -4.4425  -20.2710 O   0  0  0  0  0  0
  -24.2065   -4.9230  -19.6413 H   0  0  0  0  0  0
  -25.0398   -3.6681  -19.7924 H   0  0  0  0  0  0
  -24.7440   -4.4425  -20.2710 O   0  0  0  0  0  0
  -24.8362   -3.5728  -19.8818 H   0  0  0  0  0  0
  -25.5184   -4.9211  -19.9752 H   0  0  0  0  0  0
  -18.7440   -7.9425  -18.2710 O   0  0  0  0  0  0
  -19.1332   -7.8503  -17.4013 H   0  0  0  0  0  0
  -19.0398   -7.1681  -18.7496 H   0  0  0  0  0  0
  -18.7440   -7.9425  -18.2710 O   0  0  0  0  0  0
  -18.2635   -7.3128  -17.7335 H   0  0  0  0  0  0
  -19.5184   -7.4639  -18.5668 H   0  0  0  0  0  0
  -18.7440   -7.9425  -18.2710 O   0  0  0  0  0  0
  -18.8362   -7.0728  -18.6602 H   0  0  0  0  0  0
  -19.5184   -8.4211  -18.5668 H   0  0  0  0  0  0
  -13.7440   -6.4425  -37.7710 O   0  0  0  0  0  0
  -14.2245   -5.8128  -38.3085 H   0  0  0  0  0  0
  -12.9696   -5.9639  -37.4752 H   0  0  0  0  0  0
  -13.7440   -6.4425  -37.7710 O   0  0  0  0  0  0
  -13.2065   -6.9230  -38.4007 H   0  0  0  0  0  0
  -14.0398   -5.6681  -38.2496 H   0  0  0  0  0  0
  1  2  1  0  0  0
  1  3  1  0  0  0
  4  5  1  0  0  0
  4  6  1  0  0  0
  7  8  1  0  0  0
  7  9  1  0  0  0
 10 11  1  0  0  0
 10 12  1  0  0  0
 13 14  1  0  0  0
 13 15  1  0  0  0
 16 17  1  0  0  0
 16 18  1  0  0  0
 19 20  1  0  0  0
 19 21  1  0  0  0
 22 23  1  0  0  0
 22 24  1  0  0  0
 25 26  1  0  0  0
 25 27  1  0  0  0
 28 29  1  0  0  0
 28 30  1  0  0  0
 31 32  1  0  0  0
 31 33  1  0  0  0
 34 35  1  0  0  0
 34 36  1  0  0  0
 37 38  1  0  0  0
 37 39  1  0  0  0
 40 41  1  0  0  0
 40 42  1  0  0  0
 43 44  1  0  0  0
 43 45  1  0  0  0
 46 47  1  0  0  0
 46 48  1  0  0  0
 49 50  1  0  0  0
 49 51  1  0  0  0
 52 53  1  0  0  0
 52 54  1  0  0  0
 55 56  1  0  0  0
 55 57  1  0  0  0
 58 59  1  0  0  0
 58 60  1  0  0  0
 61 62  1  0  0  0
 61 63  1  0  0  0
 64 65  1  0  0  0
 64 66  1  0  0  0
 67 68  1  0  0  0
 67 69  1  0  0  0
 70 71  1  0  0  0
 70 72  1  0  0  0
 73 74  1  0  0  0
 73 75  1  0  0  0
 76 77  1  0  0  0
 76 78  1  0  0  0
 79 80  1  0  0  0
 79 81  1  0  0  0
 82 83  1  0  0  0
 82 84  1  0  0  0
 85 86  1  0  0  0
 85 87  1  0  0  0
 88 89  1  0  0  0
 88 90  1  0  0  0
 91 92  1  0  0  0
 91 93  1  0  0  0
 94 95  1  0  0  0
 94 96  1  0  0  0
 97 98  1  0  0  0
 97 99  1  0  0  0
100101  1  0  0  0
100102  1  0  0  0
103104  1  0  0  0
103105  1  0  0  0
106107  1  0  0  0
106108  1  0  0  0
109110  1  0  0  0
109111  1  0  0  0
112113  1  0  0  0
112114  1  0  0  0
115116  1  0  0  0
115117  1  0  0  0
118119  1  0  0  0
118120  1  0  0  0
121122  1  0  0  0
121123  1  0  0  0
124125  1  0  0  0
124126  1  0  0  0
127128  1  0  0  0
127129  1  0  0  0
130131  1  0  0  0
130132  1  0  0  0
133134  1  0  0  0
133135  1  0  0  0
136137  1  0  0  0
136138  1  0  0  0
139140  1  0  0  0
139141  1  0  0  0
142143  1  0  0  0
142144  1  0  0  0
145146  1  0  0  0
145147  1  0  0  0
148149  1  0  0  0
148150  1  0  0  0
151152  1  0  0  0
151153  1  0  0  0
154155  1  0  0  0
154156  1  0  0  0
157158  1  0  0  0
157159  1  0  0  0
160161  1  0  0  0
160162  1  0  0  0
163164  1  0  0  0
163165  1  0  0  0
166167  1  0  0  0
166168  1  0  0  0
169170  1  0  0  0
169171  1  0  0  0
172173  1  0  0  0
172174  1  0  0  0
175176  1  0  0  0
175177  1  0  0  0
178179  1  0  0  0
178180  1  0  0  0
181182  1  0  0  0
181183  1  0  0  0
184185  1  0  0  0
184186  1  0  0  0
187188  1  0  0  0
187189  1  0  0  0
190191  1  0  0  0
190192  1  0  0  0
193194  1  0  0  0
193195  1  0  0  0
196197  1  0  0  0
196198  1  0  0  0
199200  1  0  0  0
199201  1  0  0  0
202203  1  0  0  0
202204  1  0  0  0
205206  1  0  0  0
205207  1  0  0  0
208209  1  0  0  0
208210  1  0  0  0
211212  1  0  0  0
211213  1  0  0  0
214215  1  0  0  0
214216  1  0  0  0
217218  1  0  0  0
217219  1  0  0  0
220221  1  0  0  0
220222  1  0  0  0
223224  1  0  0  0
223225  1  0  0  0
226227  1  0  0  0
226228  1  0  0  0
229230  1  0  0  0
229231  1  0  0  0
232233  1  0  0  0
232234  1  0  0  0
235236  1  0  0  0
235237  1  0  0  0
238239  1  0  0  0
238240  1  0  0  0
241242  1  0  0  0
241243  1  0  0  0
244245  1  0  0  0
244246  1  0  0  0
247248  1  0  0  0
247249  1  0  0  0
250251  1  0  0  0
250252  1  0  0  0
253254  1  0  0  0
253255  1  0  0  0
256257  1  0  0  0
256258  1  0  0  0
259260  1  0  0  0
259261  1  0  0  0
262263  1  0  0  0
262264  1  0  0  0
265266  1  0  0  0
265267  1  0  0  0
268269  1  0  0  0
268270  1  0  0  0
271272  1  0  0  0
271273  1  0  0  0
274275  1  0  0  0
274276  1  0  0  0
277278  1  0  0  0
277279  1  0  0  0
280281  1  0  0  0
280282  1  0  0  0
283284  1  0  0  0
283285  1  0  0  0
286287  1  0  0  0
286288  1  0  0  0
289290  1  0  0  0
289291  1  0  0  0
292293  1  0  0  0
292294  1  0  0  0
295296  1  0  0  0
295297  1  0  0  0
298299  1  0  0  0
298300  1  0  0  0
301302  1  0  0  0
301303  1  0  0  0
304305  1  0  0  0
304306  1  0  0  0
307308  1  0  0  0
307309  1  0  0  0
310311  1  0  0  0
310312  1  0  0  0
313314  1  0  0  0
313315  1  0  0  0
316317  1  0  0  0
316318  1  0  0  0
319320  1  0  0  0
319321  1  0  0  0
322323  1  0  0  0
322324  1  0  0  0
325326  1  0  0  0
325327  1  0  0  0
328329  1  0  0  0
328330  1  0  0  0
331332  1  0  0  0
331333  1  0  0  0
334335  1  0  0  0
334336  1  0  0  0
337338  1  0  0  0
337339  1  0  0  0
340341  1  0  0  0
340342  1  0  0  0
343344  1  0  0  0
343345  1  0  0  0
346347  1  0  0  0
346348  1  0  0  0
349350  1  0  0  0
349351  1  0  0  0
352353  1  0  0  0
352354  1  0  0  0
355356  1  0  0  0
355357  1  0  0  0
358359  1  0  0  0
358360  1  0  0  0
361362  1  0  0  0
361363  1  0  0  0
364365  1  0  0  0
364366  1  0  0  0
367368  1  0  0  0
367369  1  0  0  0
370371  1  0  0  0
370372  1  0  0  0
373374  1  0  0  0
373375  1  0  0  0
376377  1  0  0  0
376378  1  0  0  0
379380  1  0  0  0
379381  1  0  0  0
382383  1  0  0  0
382384  1  0  0  0
385386  1  0  0  0
385387  1  0  0  0
388389  1  0  0  0
388390  1  0  0  0
391392  1  0  0  0
391393  1  0  0  0
394395  1  0  0  0
394396  1  0  0  0
397398  1  0  0  0
397399  1  0  0  0
400401  1  0  0  0
400402  1  0  0  0
403404  1  0  0  0
403405  1  0  0  0
406407  1  0  0  0
406408  1  0  0  0
409410  1  0  0  0
409411  1  0  0  0
M  END
> <s_m_entry_id>
7821

> <s_m_entry_name>
SZMAP_Mpro_6M2Q.6_merged137

> <s_m_Source_Path>
C:\Users\ifige\Documents\lab_projects\Mpro\szmap\6M2Q\SZMAP_6M2Q

> <s_m_Source_File>
SZMAP_Mpro_6M2Q.mae

> <i_m_Source_File_Index>
6

> <szmap_neut_diff_free_energy>
-8.953

> <szmap_vdw>
9.156

> <szmap_order>
0.391

> <szmap_probability>
0.167

$$$$
