7ar6_yellow_waters
                    3D
 Structure written by MMmdl.
390260  0  0  1  0            999 V2000
  -26.2440   -7.9425  -26.7710 O   0  0  0  0  0  0
  -25.8548   -7.8503  -25.9013 H   0  0  0  0  0  0
  -25.9482   -7.1681  -27.2496 H   0  0  0  0  0  0
  -26.2440   -7.9425  -26.7710 O   0  0  0  0  0  0
  -25.3174   -8.1825  -26.7710 H   0  0  0  0  0  0
  -26.2440   -6.9853  -26.7710 H   0  0  0  0  0  0
  -26.2440   -7.9425  -26.7710 O   0  0  0  0  0  0
  -25.6143   -7.4050  -27.2515 H   0  0  0  0  0  0
  -25.7654   -8.2383  -25.9966 H   0  0  0  0  0  0
  -26.2440   -7.9425  -26.7710 O   0  0  0  0  0  0
  -25.8548   -7.8503  -27.6407 H   0  0  0  0  0  0
  -25.9482   -7.1681  -26.2924 H   0  0  0  0  0  0
  -31.2440    2.0575  -39.2710 O   0  0  0  0  0  0
  -31.3362    2.9272  -39.6602 H   0  0  0  0  0  0
  -32.0184    1.5789  -39.5668 H   0  0  0  0  0  0
  -26.7440   -9.9425  -31.2710 O   0  0  0  0  0  0
  -27.6706   -9.7025  -31.2710 H   0  0  0  0  0  0
  -26.7440  -10.8997  -31.2710 H   0  0  0  0  0  0
  -26.7440   -9.9425  -31.2710 O   0  0  0  0  0  0
  -26.8362  -10.8122  -31.6602 H   0  0  0  0  0  0
  -27.5184   -9.4639  -31.5668 H   0  0  0  0  0  0
  -12.7440   -7.4425  -24.7710 O   0  0  0  0  0  0
  -13.1332   -7.3503  -25.6407 H   0  0  0  0  0  0
  -13.0398   -6.6681  -24.2924 H   0  0  0  0  0  0
  -30.2440   -6.4425  -22.2710 O   0  0  0  0  0  0
  -29.8548   -6.3503  -21.4013 H   0  0  0  0  0  0
  -29.9482   -5.6681  -22.7496 H   0  0  0  0  0  0
  -21.2440  -11.4425  -21.7710 O   0  0  0  0  0  0
  -20.3743  -11.8317  -21.6788 H   0  0  0  0  0  0
  -21.7226  -11.7383  -20.9966 H   0  0  0  0  0  0
  -21.2440  -11.4425  -21.7710 O   0  0  0  0  0  0
  -21.2440  -12.3691  -22.0110 H   0  0  0  0  0  0
  -21.2440  -11.4425  -20.8138 H   0  0  0  0  0  0
  -21.2440  -11.4425  -21.7710 O   0  0  0  0  0  0
  -22.1137  -11.8317  -21.6788 H   0  0  0  0  0  0
  -20.7654  -11.7383  -20.9966 H   0  0  0  0  0  0
  -21.2440  -11.4425  -21.7710 O   0  0  0  0  0  0
  -20.8548  -11.5347  -20.9013 H   0  0  0  0  0  0
  -20.9482  -12.2169  -22.2496 H   0  0  0  0  0  0
  -14.2440   -7.9425  -24.7710 O   0  0  0  0  0  0
  -13.8548   -7.8503  -25.6407 H   0  0  0  0  0  0
  -13.9482   -7.1681  -24.2924 H   0  0  0  0  0  0
  -20.2440   -4.9425  -36.2710 O   0  0  0  0  0  0
  -19.8548   -5.0347  -35.4013 H   0  0  0  0  0  0
  -19.9482   -5.7169  -36.7496 H   0  0  0  0  0  0
  -12.7440   -4.9425  -18.2710 O   0  0  0  0  0  0
  -12.1143   -5.4800  -18.7515 H   0  0  0  0  0  0
  -12.2654   -4.6467  -17.4966 H   0  0  0  0  0  0
  -12.7440   -4.9425  -18.2710 O   0  0  0  0  0  0
  -12.6518   -5.8122  -17.8818 H   0  0  0  0  0  0
  -11.9696   -4.4639  -17.9752 H   0  0  0  0  0  0
  -12.7440   -4.9425  -18.2710 O   0  0  0  0  0  0
  -12.3548   -5.0347  -17.4013 H   0  0  0  0  0  0
  -12.4482   -5.7169  -18.7496 H   0  0  0  0  0  0
  -12.7440   -4.9425  -18.2710 O   0  0  0  0  0  0
  -12.1143   -4.4050  -17.7905 H   0  0  0  0  0  0
  -12.2654   -5.2383  -19.0454 H   0  0  0  0  0  0
  -21.2440  -10.9425  -25.7710 O   0  0  0  0  0  0
  -22.1137  -11.3317  -25.8632 H   0  0  0  0  0  0
  -20.7654  -11.2383  -26.5454 H   0  0  0  0  0  0
  -21.2440  -10.9425  -25.7710 O   0  0  0  0  0  0
  -21.7815  -10.4620  -26.4007 H   0  0  0  0  0  0
  -20.9482  -11.7169  -26.2496 H   0  0  0  0  0  0
  -21.2440  -10.9425  -25.7710 O   0  0  0  0  0  0
  -20.3743  -11.3317  -25.8632 H   0  0  0  0  0  0
  -21.7226  -11.2383  -26.5454 H   0  0  0  0  0  0
  -21.2440  -10.9425  -25.7710 O   0  0  0  0  0  0
  -20.7065  -10.4620  -26.4007 H   0  0  0  0  0  0
  -21.5398  -11.7169  -26.2496 H   0  0  0  0  0  0
  -31.2440    0.0575  -40.2710 O   0  0  0  0  0  0
  -31.3362   -0.8122  -40.6602 H   0  0  0  0  0  0
  -32.0184    0.5361  -40.5668 H   0  0  0  0  0  0
  -31.2440    0.0575  -40.2710 O   0  0  0  0  0  0
  -31.3362    0.9272  -40.6602 H   0  0  0  0  0  0
  -32.0184   -0.4211  -40.5668 H   0  0  0  0  0  0
  -31.2440    0.0575  -40.2710 O   0  0  0  0  0  0
  -31.0040    0.0575  -41.1976 H   0  0  0  0  0  0
  -32.2012    0.0575  -40.2710 H   0  0  0  0  0  0
  -15.7440  -10.4425  -27.2710 O   0  0  0  0  0  0
  -14.8174  -10.6825  -27.2710 H   0  0  0  0  0  0
  -15.7440   -9.4853  -27.2710 H   0  0  0  0  0  0
  -15.7440  -10.4425  -27.2710 O   0  0  0  0  0  0
  -15.7440   -9.5159  -27.5110 H   0  0  0  0  0  0
  -15.7440  -10.4425  -26.3138 H   0  0  0  0  0  0
  -16.2440   -9.9425  -26.2710 O   0  0  0  0  0  0
  -15.7635   -9.3128  -26.8085 H   0  0  0  0  0  0
  -17.0184   -9.4639  -25.9752 H   0  0  0  0  0  0
  -16.2440   -9.9425  -26.2710 O   0  0  0  0  0  0
  -15.8548   -9.8503  -25.4013 H   0  0  0  0  0  0
  -15.9482   -9.1681  -26.7496 H   0  0  0  0  0  0
  -16.2440   -9.9425  -26.2710 O   0  0  0  0  0  0
  -16.1518   -9.0728  -26.6602 H   0  0  0  0  0  0
  -15.4696  -10.4211  -26.5668 H   0  0  0  0  0  0
  -21.7440   -3.9425  -23.2710 O   0  0  0  0  0  0
  -21.5040   -3.9425  -24.1976 H   0  0  0  0  0  0
  -22.7012   -3.9425  -23.2710 H   0  0  0  0  0  0
  -21.7440   -3.9425  -23.2710 O   0  0  0  0  0  0
  -22.6137   -4.3317  -23.3632 H   0  0  0  0  0  0
  -21.2654   -4.2383  -24.0454 H   0  0  0  0  0  0
  -17.7440   -8.9425  -27.2710 O   0  0  0  0  0  0
  -16.8743   -8.5533  -27.3632 H   0  0  0  0  0  0
  -18.2226   -8.6467  -28.0454 H   0  0  0  0  0  0
  -17.7440   -8.9425  -27.2710 O   0  0  0  0  0  0
  -18.2245   -8.3128  -26.7335 H   0  0  0  0  0  0
  -16.9696   -8.4639  -27.5668 H   0  0  0  0  0  0
  -17.7440   -8.9425  -27.2710 O   0  0  0  0  0  0
  -17.6518   -9.8122  -27.6602 H   0  0  0  0  0  0
  -16.9696   -8.4639  -27.5668 H   0  0  0  0  0  0
  -31.2440   -8.4425  -25.7710 O   0  0  0  0  0  0
  -31.7815   -7.9620  -25.1413 H   0  0  0  0  0  0
  -30.9482   -9.2169  -25.2924 H   0  0  0  0  0  0
  -31.2440   -8.4425  -25.7710 O   0  0  0  0  0  0
  -32.1137   -8.8317  -25.6788 H   0  0  0  0  0  0
  -30.7654   -8.7383  -24.9966 H   0  0  0  0  0  0
  -24.2440   -6.4425  -31.2710 O   0  0  0  0  0  0
  -24.4840   -6.4425  -30.3444 H   0  0  0  0  0  0
  -23.2868   -6.4425  -31.2710 H   0  0  0  0  0  0
  -24.2440   -6.4425  -31.2710 O   0  0  0  0  0  0
  -23.3743   -6.0533  -31.1788 H   0  0  0  0  0  0
  -24.7226   -6.1467  -30.4966 H   0  0  0  0  0  0
  -24.2440   -6.4425  -31.2710 O   0  0  0  0  0  0
  -24.1518   -5.5728  -30.8818 H   0  0  0  0  0  0
  -23.4696   -6.9211  -30.9752 H   0  0  0  0  0  0
  -22.2440   -2.4425  -28.2710 O   0  0  0  0  0  0
  -21.3174   -2.6825  -28.2710 H   0  0  0  0  0  0
  -22.2440   -1.4853  -28.2710 H   0  0  0  0  0  0
  -22.2440   -2.4425  -28.2710 O   0  0  0  0  0  0
  -22.7245   -1.8128  -27.7335 H   0  0  0  0  0  0
  -21.4696   -1.9639  -28.5668 H   0  0  0  0  0  0
  -18.2440   -9.4425  -21.7710 O   0  0  0  0  0  0
  -18.7245  -10.0722  -21.2335 H   0  0  0  0  0  0
  -17.4696   -9.9211  -22.0668 H   0  0  0  0  0  0
  -18.2440   -9.4425  -21.7710 O   0  0  0  0  0  0
  -18.7245  -10.0722  -22.3085 H   0  0  0  0  0  0
  -17.4696   -9.9211  -21.4752 H   0  0  0  0  0  0
  -18.2440   -9.4425  -21.7710 O   0  0  0  0  0  0
  -17.8548   -9.5347  -22.6407 H   0  0  0  0  0  0
  -17.9482  -10.2169  -21.2924 H   0  0  0  0  0  0
  -16.2440   -8.4425  -25.2710 O   0  0  0  0  0  0
  -15.8548   -8.3503  -26.1407 H   0  0  0  0  0  0
  -15.9482   -7.6681  -24.7924 H   0  0  0  0  0  0
  -16.2440   -8.4425  -25.2710 O   0  0  0  0  0  0
  -16.2440   -7.5159  -25.0310 H   0  0  0  0  0  0
  -16.2440   -8.4425  -26.2282 H   0  0  0  0  0  0
  -14.7440   -9.4425  -25.7710 O   0  0  0  0  0  0
  -13.8743   -9.0533  -25.8632 H   0  0  0  0  0  0
  -15.2226   -9.1467  -26.5454 H   0  0  0  0  0  0
  -27.2440   -4.9425  -19.7710 O   0  0  0  0  0  0
  -27.7245   -5.5722  -19.2335 H   0  0  0  0  0  0
  -26.4696   -5.4211  -20.0668 H   0  0  0  0  0  0
  -27.2440   -4.9425  -19.7710 O   0  0  0  0  0  0
  -26.7635   -5.5722  -20.3085 H   0  0  0  0  0  0
  -28.0184   -5.4211  -19.4752 H   0  0  0  0  0  0
  -27.2440   -4.9425  -19.7710 O   0  0  0  0  0  0
  -27.7245   -5.5722  -20.3085 H   0  0  0  0  0  0
  -26.4696   -5.4211  -19.4752 H   0  0  0  0  0  0
  -27.2440   -4.9425  -19.7710 O   0  0  0  0  0  0
  -26.8548   -5.0347  -20.6407 H   0  0  0  0  0  0
  -26.9482   -5.7169  -19.2924 H   0  0  0  0  0  0
  -16.7440   -9.9425  -28.7710 O   0  0  0  0  0  0
  -16.2635   -9.3128  -28.2335 H   0  0  0  0  0  0
  -17.5184   -9.4639  -29.0668 H   0  0  0  0  0  0
  -16.7440   -9.9425  -28.7710 O   0  0  0  0  0  0
  -16.3548   -9.8503  -29.6407 H   0  0  0  0  0  0
  -16.4482   -9.1681  -28.2924 H   0  0  0  0  0  0
  -16.7440   -9.9425  -28.7710 O   0  0  0  0  0  0
  -17.2815  -10.4230  -28.1413 H   0  0  0  0  0  0
  -16.4482   -9.1681  -28.2924 H   0  0  0  0  0  0
  -19.2440   -5.4425  -30.2710 O   0  0  0  0  0  0
  -20.1137   -5.8317  -30.3632 H   0  0  0  0  0  0
  -18.7654   -5.7383  -31.0454 H   0  0  0  0  0  0
  -19.2440   -5.4425  -30.2710 O   0  0  0  0  0  0
  -18.8548   -5.5347  -31.1407 H   0  0  0  0  0  0
  -18.9482   -6.2169  -29.7924 H   0  0  0  0  0  0
  -26.2440   -1.9425  -25.2710 O   0  0  0  0  0  0
  -25.7635   -2.5722  -24.7335 H   0  0  0  0  0  0
  -27.0184   -2.4211  -25.5668 H   0  0  0  0  0  0
  -26.2440   -1.9425  -25.2710 O   0  0  0  0  0  0
  -26.7245   -2.5722  -25.8085 H   0  0  0  0  0  0
  -25.4696   -2.4211  -24.9752 H   0  0  0  0  0  0
  -19.2440   -2.9425  -23.7710 O   0  0  0  0  0  0
  -19.1518   -3.8122  -24.1602 H   0  0  0  0  0  0
  -18.4696   -2.4639  -24.0668 H   0  0  0  0  0  0
  -28.2440   -2.9425  -26.2710 O   0  0  0  0  0  0
  -28.3362   -2.0728  -26.6602 H   0  0  0  0  0  0
  -29.0184   -3.4211  -26.5668 H   0  0  0  0  0  0
  -19.2440   -6.9425  -32.7710 O   0  0  0  0  0  0
  -19.1518   -7.8122  -32.3818 H   0  0  0  0  0  0
  -18.4696   -6.4639  -32.4752 H   0  0  0  0  0  0
  -19.2440   -6.9425  -32.7710 O   0  0  0  0  0  0
  -18.3743   -6.5533  -32.6788 H   0  0  0  0  0  0
  -19.7226   -6.6467  -31.9966 H   0  0  0  0  0  0
  -19.2440   -6.9425  -32.7710 O   0  0  0  0  0  0
  -18.6143   -6.4050  -32.2905 H   0  0  0  0  0  0
  -18.7654   -7.2383  -33.5454 H   0  0  0  0  0  0
  -19.2440   -6.9425  -32.7710 O   0  0  0  0  0  0
  -19.7245   -6.3128  -33.3085 H   0  0  0  0  0  0
  -18.4696   -6.4639  -32.4752 H   0  0  0  0  0  0
  -20.2440   -7.4425  -26.7710 O   0  0  0  0  0  0
  -20.4840   -7.4425  -25.8444 H   0  0  0  0  0  0
  -19.2868   -7.4425  -26.7710 H   0  0  0  0  0  0
  -20.2440   -7.4425  -26.7710 O   0  0  0  0  0  0
  -20.2440   -8.3691  -27.0110 H   0  0  0  0  0  0
  -20.2440   -7.4425  -25.8138 H   0  0  0  0  0  0
  -20.2440   -7.4425  -26.7710 O   0  0  0  0  0  0
  -20.6332   -7.5347  -25.9013 H   0  0  0  0  0  0
  -20.5398   -8.2169  -27.2496 H   0  0  0  0  0  0
  -20.2440   -7.4425  -26.7710 O   0  0  0  0  0  0
  -19.3743   -7.8317  -26.6788 H   0  0  0  0  0  0
  -20.7226   -7.7383  -25.9966 H   0  0  0  0  0  0
  -12.2440   -8.9425  -27.2710 O   0  0  0  0  0  0
  -13.1706   -9.1825  -27.2710 H   0  0  0  0  0  0
  -12.2440   -7.9853  -27.2710 H   0  0  0  0  0  0
  -12.2440   -8.9425  -27.2710 O   0  0  0  0  0  0
  -12.3362   -8.0728  -26.8818 H   0  0  0  0  0  0
  -13.0184   -9.4211  -26.9752 H   0  0  0  0  0  0
  -19.7440   -5.9425  -32.2710 O   0  0  0  0  0  0
  -19.9840   -5.9425  -31.3444 H   0  0  0  0  0  0
  -18.7868   -5.9425  -32.2710 H   0  0  0  0  0  0
  -19.7440   -5.9425  -32.2710 O   0  0  0  0  0  0
  -18.8174   -5.7025  -32.2710 H   0  0  0  0  0  0
  -19.7440   -6.8997  -32.2710 H   0  0  0  0  0  0
  -17.2440   -3.4425  -26.2710 O   0  0  0  0  0  0
  -17.7245   -2.8128  -26.8085 H   0  0  0  0  0  0
  -16.4696   -2.9639  -25.9752 H   0  0  0  0  0  0
  -17.2440   -3.4425  -26.2710 O   0  0  0  0  0  0
  -16.3174   -3.6825  -26.2710 H   0  0  0  0  0  0
  -17.2440   -2.4853  -26.2710 H   0  0  0  0  0  0
  -18.2440   -7.9425  -31.2710 O   0  0  0  0  0  0
  -18.1518   -7.0728  -31.6602 H   0  0  0  0  0  0
  -17.4696   -8.4211  -31.5668 H   0  0  0  0  0  0
  -18.2440   -7.9425  -31.2710 O   0  0  0  0  0  0
  -17.8548   -7.8503  -30.4013 H   0  0  0  0  0  0
  -17.9482   -7.1681  -31.7496 H   0  0  0  0  0  0
  -18.2440   -7.9425  -31.2710 O   0  0  0  0  0  0
  -17.7635   -7.3128  -31.8085 H   0  0  0  0  0  0
  -19.0184   -7.4639  -30.9752 H   0  0  0  0  0  0
  -19.2440   -5.4425  -33.2710 O   0  0  0  0  0  0
  -18.6143   -4.9050  -33.7515 H   0  0  0  0  0  0
  -18.7654   -5.7383  -32.4966 H   0  0  0  0  0  0
  -19.2440   -5.4425  -33.2710 O   0  0  0  0  0  0
  -18.8548   -5.5347  -32.4013 H   0  0  0  0  0  0
  -18.9482   -6.2169  -33.7496 H   0  0  0  0  0  0
  -19.2440   -5.4425  -33.2710 O   0  0  0  0  0  0
  -20.1137   -5.8317  -33.1788 H   0  0  0  0  0  0
  -18.7654   -5.7383  -32.4966 H   0  0  0  0  0  0
  -19.2440   -5.4425  -33.2710 O   0  0  0  0  0  0
  -18.3743   -5.8317  -33.1788 H   0  0  0  0  0  0
  -19.7226   -5.7383  -32.4966 H   0  0  0  0  0  0
  -29.2440   -7.4425  -19.2710 O   0  0  0  0  0  0
  -28.7635   -6.8128  -18.7335 H   0  0  0  0  0  0
  -30.0184   -6.9639  -19.5668 H   0  0  0  0  0  0
  -29.2440   -7.4425  -19.2710 O   0  0  0  0  0  0
  -29.6332   -7.3503  -18.4013 H   0  0  0  0  0  0
  -29.5398   -6.6681  -19.7496 H   0  0  0  0  0  0
  -29.2440   -7.4425  -19.2710 O   0  0  0  0  0  0
  -29.3362   -6.5728  -19.6602 H   0  0  0  0  0  0
  -30.0184   -7.9211  -19.5668 H   0  0  0  0  0  0
  -29.2440   -7.4425  -19.2710 O   0  0  0  0  0  0
  -29.8737   -6.9050  -19.7515 H   0  0  0  0  0  0
  -29.7226   -7.7383  -18.4966 H   0  0  0  0  0  0
  -29.2440   -7.4425  -19.2710 O   0  0  0  0  0  0
  -30.1137   -7.0533  -19.3632 H   0  0  0  0  0  0
  -28.7654   -7.1467  -20.0454 H   0  0  0  0  0  0
  -21.7440   -6.4425  -26.2710 O   0  0  0  0  0  0
  -21.2065   -6.9230  -25.6413 H   0  0  0  0  0  0
  -22.0398   -5.6681  -25.7924 H   0  0  0  0  0  0
  -21.7440   -6.4425  -26.2710 O   0  0  0  0  0  0
  -21.3548   -6.5347  -25.4013 H   0  0  0  0  0  0
  -21.4482   -7.2169  -26.7496 H   0  0  0  0  0  0
  -21.7440   -6.4425  -26.2710 O   0  0  0  0  0  0
  -21.1143   -5.9050  -26.7515 H   0  0  0  0  0  0
  -21.2654   -6.7383  -25.4966 H   0  0  0  0  0  0
  -21.7440   -6.4425  -26.2710 O   0  0  0  0  0  0
  -21.1143   -6.9800  -25.7905 H   0  0  0  0  0  0
  -21.2654   -6.1467  -27.0454 H   0  0  0  0  0  0
  -21.7440   -6.4425  -26.2710 O   0  0  0  0  0  0
  -22.6137   -6.8317  -26.1788 H   0  0  0  0  0  0
  -21.2654   -6.7383  -25.4966 H   0  0  0  0  0  0
  -28.7440   -9.4425  -24.2710 O   0  0  0  0  0  0
  -28.5040   -9.4425  -25.1976 H   0  0  0  0  0  0
  -29.7012   -9.4425  -24.2710 H   0  0  0  0  0  0
  -28.7440   -9.4425  -24.2710 O   0  0  0  0  0  0
  -28.7440   -8.5159  -24.0310 H   0  0  0  0  0  0
  -28.7440   -9.4425  -25.2282 H   0  0  0  0  0  0
  -28.7440   -9.4425  -24.2710 O   0  0  0  0  0  0
  -28.7440  -10.3691  -24.0310 H   0  0  0  0  0  0
  -28.7440   -9.4425  -25.2282 H   0  0  0  0  0  0
  -26.2440   -6.4425  -39.7710 O   0  0  0  0  0  0
  -25.7065   -6.9230  -39.1413 H   0  0  0  0  0  0
  -26.5398   -5.6681  -39.2924 H   0  0  0  0  0  0
  -19.7440   -5.9425  -25.7710 O   0  0  0  0  0  0
  -20.2245   -6.5722  -25.2335 H   0  0  0  0  0  0
  -18.9696   -6.4211  -26.0668 H   0  0  0  0  0  0
  -19.7440   -5.9425  -25.7710 O   0  0  0  0  0  0
  -19.8362   -6.8122  -25.3818 H   0  0  0  0  0  0
  -20.5184   -5.4639  -25.4752 H   0  0  0  0  0  0
  -19.7440   -5.9425  -25.7710 O   0  0  0  0  0  0
  -19.2065   -5.4620  -25.1413 H   0  0  0  0  0  0
  -20.0398   -6.7169  -25.2924 H   0  0  0  0  0  0
  -19.7440   -5.9425  -25.7710 O   0  0  0  0  0  0
  -20.1332   -6.0347  -26.6407 H   0  0  0  0  0  0
  -20.0398   -6.7169  -25.2924 H   0  0  0  0  0  0
  -26.2440   -4.4425  -39.7710 O   0  0  0  0  0  0
  -26.6332   -4.5347  -38.9013 H   0  0  0  0  0  0
  -26.5398   -5.2169  -40.2496 H   0  0  0  0  0  0
  -26.2440   -4.4425  -39.7710 O   0  0  0  0  0  0
  -26.8737   -3.9050  -40.2515 H   0  0  0  0  0  0
  -26.7226   -4.7383  -38.9966 H   0  0  0  0  0  0
  -25.2440   -9.4425  -38.2710 O   0  0  0  0  0  0
  -25.1518   -8.5728  -37.8818 H   0  0  0  0  0  0
  -24.4696   -9.9211  -37.9752 H   0  0  0  0  0  0
  -25.2440   -9.4425  -38.2710 O   0  0  0  0  0  0
  -24.8548   -9.3503  -39.1407 H   0  0  0  0  0  0
  -24.9482   -8.6681  -37.7924 H   0  0  0  0  0  0
  -25.2440   -9.4425  -38.2710 O   0  0  0  0  0  0
  -25.7815   -9.9230  -37.6413 H   0  0  0  0  0  0
  -24.9482   -8.6681  -37.7924 H   0  0  0  0  0  0
  -19.2440   -7.9425  -18.2710 O   0  0  0  0  0  0
  -19.3362   -7.0728  -18.6602 H   0  0  0  0  0  0
  -20.0184   -8.4211  -18.5668 H   0  0  0  0  0  0
  -19.2440   -7.9425  -18.2710 O   0  0  0  0  0  0
  -19.7245   -7.3128  -18.8085 H   0  0  0  0  0  0
  -18.4696   -7.4639  -17.9752 H   0  0  0  0  0  0
  -19.2440   -7.9425  -18.2710 O   0  0  0  0  0  0
  -19.6332   -7.8503  -17.4013 H   0  0  0  0  0  0
  -19.5398   -7.1681  -18.7496 H   0  0  0  0  0  0
  -19.2440   -7.9425  -18.2710 O   0  0  0  0  0  0
  -19.6332   -7.8503  -19.1407 H   0  0  0  0  0  0
  -19.5398   -7.1681  -17.7924 H   0  0  0  0  0  0
  -24.7440   -4.4425  -20.2710 O   0  0  0  0  0  0
  -24.2065   -4.9230  -19.6413 H   0  0  0  0  0  0
  -25.0398   -3.6681  -19.7924 H   0  0  0  0  0  0
  -24.7440   -4.4425  -20.2710 O   0  0  0  0  0  0
  -24.8362   -3.5728  -19.8818 H   0  0  0  0  0  0
  -25.5184   -4.9211  -19.9752 H   0  0  0  0  0  0
  -24.7440   -4.4425  -20.2710 O   0  0  0  0  0  0
  -25.1332   -4.3503  -21.1407 H   0  0  0  0  0  0
  -25.0398   -3.6681  -19.7924 H   0  0  0  0  0  0
  -28.7440   -8.9425  -33.7710 O   0  0  0  0  0  0
  -28.5040   -8.9425  -32.8444 H   0  0  0  0  0  0
  -29.7012   -8.9425  -33.7710 H   0  0  0  0  0  0
  -24.7440   -4.4425  -18.7710 O   0  0  0  0  0  0
  -24.8362   -3.5728  -19.1602 H   0  0  0  0  0  0
  -25.5184   -4.9211  -19.0668 H   0  0  0  0  0  0
  -24.7440   -4.4425  -18.7710 O   0  0  0  0  0  0
  -24.2065   -4.9230  -19.4007 H   0  0  0  0  0  0
  -25.0398   -3.6681  -19.2496 H   0  0  0  0  0  0
  -24.7440   -4.4425  -18.7710 O   0  0  0  0  0  0
  -25.1332   -4.3503  -17.9013 H   0  0  0  0  0  0
  -25.0398   -3.6681  -19.2496 H   0  0  0  0  0  0
  -27.7440   -3.4425  -40.2710 O   0  0  0  0  0  0
  -27.2635   -4.0722  -39.7335 H   0  0  0  0  0  0
  -28.5184   -3.9211  -40.5668 H   0  0  0  0  0  0
  -27.7440   -3.4425  -40.2710 O   0  0  0  0  0  0
  -27.7440   -4.3691  -40.0310 H   0  0  0  0  0  0
  -27.7440   -3.4425  -41.2282 H   0  0  0  0  0  0
  -12.2440   -6.4425  -37.7710 O   0  0  0  0  0  0
  -11.8548   -6.5347  -36.9013 H   0  0  0  0  0  0
  -11.9482   -7.2169  -38.2496 H   0  0  0  0  0  0
  -12.2440   -6.4425  -37.7710 O   0  0  0  0  0  0
  -13.1137   -6.8317  -37.6788 H   0  0  0  0  0  0
  -11.7654   -6.7383  -36.9966 H   0  0  0  0  0  0
  -25.2440  -11.4425  -35.2710 O   0  0  0  0  0  0
  -24.8548  -11.3503  -34.4013 H   0  0  0  0  0  0
  -24.9482  -10.6681  -35.7496 H   0  0  0  0  0  0
  -25.2440  -11.4425  -35.2710 O   0  0  0  0  0  0
  -26.1137  -11.0533  -35.1788 H   0  0  0  0  0  0
  -24.7654  -11.1467  -34.4966 H   0  0  0  0  0  0
  -25.2440  -11.4425  -35.2710 O   0  0  0  0  0  0
  -24.3743  -11.0533  -35.1788 H   0  0  0  0  0  0
  -25.7226  -11.1467  -34.4966 H   0  0  0  0  0  0
  -25.2440  -11.4425  -35.2710 O   0  0  0  0  0  0
  -24.6143  -11.9800  -35.7515 H   0  0  0  0  0  0
  -24.7654  -11.1467  -34.4966 H   0  0  0  0  0  0
  -21.2440   -7.9425  -18.2710 O   0  0  0  0  0  0
  -20.6143   -7.4050  -18.7515 H   0  0  0  0  0  0
  -20.7654   -8.2383  -17.4966 H   0  0  0  0  0  0
  -21.2440   -7.9425  -18.2710 O   0  0  0  0  0  0
  -21.7245   -7.3128  -17.7335 H   0  0  0  0  0  0
  -20.4696   -7.4639  -18.5668 H   0  0  0  0  0  0
  -21.2440   -7.9425  -18.2710 O   0  0  0  0  0  0
  -21.1518   -7.0728  -18.6602 H   0  0  0  0  0  0
  -20.4696   -8.4211  -18.5668 H   0  0  0  0  0  0
  -21.2440   -7.9425  -18.2710 O   0  0  0  0  0  0
  -20.7635   -7.3128  -18.8085 H   0  0  0  0  0  0
  -22.0184   -7.4639  -17.9752 H   0  0  0  0  0  0
  -21.2440   -7.9425  -18.2710 O   0  0  0  0  0  0
  -20.8548   -7.8503  -17.4013 H   0  0  0  0  0  0
  -20.9482   -7.1681  -18.7496 H   0  0  0  0  0  0
  1  2  1  0  0  0
  1  3  1  0  0  0
  4  5  1  0  0  0
  4  6  1  0  0  0
  7  8  1  0  0  0
  7  9  1  0  0  0
 10 11  1  0  0  0
 10 12  1  0  0  0
 13 14  1  0  0  0
 13 15  1  0  0  0
 16 17  1  0  0  0
 16 18  1  0  0  0
 19 20  1  0  0  0
 19 21  1  0  0  0
 22 23  1  0  0  0
 22 24  1  0  0  0
 25 26  1  0  0  0
 25 27  1  0  0  0
 28 29  1  0  0  0
 28 30  1  0  0  0
 31 32  1  0  0  0
 31 33  1  0  0  0
 34 35  1  0  0  0
 34 36  1  0  0  0
 37 38  1  0  0  0
 37 39  1  0  0  0
 40 41  1  0  0  0
 40 42  1  0  0  0
 43 44  1  0  0  0
 43 45  1  0  0  0
 46 47  1  0  0  0
 46 48  1  0  0  0
 49 50  1  0  0  0
 49 51  1  0  0  0
 52 53  1  0  0  0
 52 54  1  0  0  0
 55 56  1  0  0  0
 55 57  1  0  0  0
 58 59  1  0  0  0
 58 60  1  0  0  0
 61 62  1  0  0  0
 61 63  1  0  0  0
 64 65  1  0  0  0
 64 66  1  0  0  0
 67 68  1  0  0  0
 67 69  1  0  0  0
 70 71  1  0  0  0
 70 72  1  0  0  0
 73 74  1  0  0  0
 73 75  1  0  0  0
 76 77  1  0  0  0
 76 78  1  0  0  0
 79 80  1  0  0  0
 79 81  1  0  0  0
 82 83  1  0  0  0
 82 84  1  0  0  0
 85 86  1  0  0  0
 85 87  1  0  0  0
 88 89  1  0  0  0
 88 90  1  0  0  0
 91 92  1  0  0  0
 91 93  1  0  0  0
 94 95  1  0  0  0
 94 96  1  0  0  0
 97 98  1  0  0  0
 97 99  1  0  0  0
100101  1  0  0  0
100102  1  0  0  0
103104  1  0  0  0
103105  1  0  0  0
106107  1  0  0  0
106108  1  0  0  0
109110  1  0  0  0
109111  1  0  0  0
112113  1  0  0  0
112114  1  0  0  0
115116  1  0  0  0
115117  1  0  0  0
118119  1  0  0  0
118120  1  0  0  0
121122  1  0  0  0
121123  1  0  0  0
124125  1  0  0  0
124126  1  0  0  0
127128  1  0  0  0
127129  1  0  0  0
130131  1  0  0  0
130132  1  0  0  0
133134  1  0  0  0
133135  1  0  0  0
136137  1  0  0  0
136138  1  0  0  0
139140  1  0  0  0
139141  1  0  0  0
142143  1  0  0  0
142144  1  0  0  0
145146  1  0  0  0
145147  1  0  0  0
148149  1  0  0  0
148150  1  0  0  0
151152  1  0  0  0
151153  1  0  0  0
154155  1  0  0  0
154156  1  0  0  0
157158  1  0  0  0
157159  1  0  0  0
160161  1  0  0  0
160162  1  0  0  0
163164  1  0  0  0
163165  1  0  0  0
166167  1  0  0  0
166168  1  0  0  0
169170  1  0  0  0
169171  1  0  0  0
172173  1  0  0  0
172174  1  0  0  0
175176  1  0  0  0
175177  1  0  0  0
178179  1  0  0  0
178180  1  0  0  0
181182  1  0  0  0
181183  1  0  0  0
184185  1  0  0  0
184186  1  0  0  0
187188  1  0  0  0
187189  1  0  0  0
190191  1  0  0  0
190192  1  0  0  0
193194  1  0  0  0
193195  1  0  0  0
196197  1  0  0  0
196198  1  0  0  0
199200  1  0  0  0
199201  1  0  0  0
202203  1  0  0  0
202204  1  0  0  0
205206  1  0  0  0
205207  1  0  0  0
208209  1  0  0  0
208210  1  0  0  0
211212  1  0  0  0
211213  1  0  0  0
214215  1  0  0  0
214216  1  0  0  0
217218  1  0  0  0
217219  1  0  0  0
220221  1  0  0  0
220222  1  0  0  0
223224  1  0  0  0
223225  1  0  0  0
226227  1  0  0  0
226228  1  0  0  0
229230  1  0  0  0
229231  1  0  0  0
232233  1  0  0  0
232234  1  0  0  0
235236  1  0  0  0
235237  1  0  0  0
238239  1  0  0  0
238240  1  0  0  0
241242  1  0  0  0
241243  1  0  0  0
244245  1  0  0  0
244246  1  0  0  0
247248  1  0  0  0
247249  1  0  0  0
250251  1  0  0  0
250252  1  0  0  0
253254  1  0  0  0
253255  1  0  0  0
256257  1  0  0  0
256258  1  0  0  0
259260  1  0  0  0
259261  1  0  0  0
262263  1  0  0  0
262264  1  0  0  0
265266  1  0  0  0
265267  1  0  0  0
268269  1  0  0  0
268270  1  0  0  0
271272  1  0  0  0
271273  1  0  0  0
274275  1  0  0  0
274276  1  0  0  0
277278  1  0  0  0
277279  1  0  0  0
280281  1  0  0  0
280282  1  0  0  0
283284  1  0  0  0
283285  1  0  0  0
286287  1  0  0  0
286288  1  0  0  0
289290  1  0  0  0
289291  1  0  0  0
292293  1  0  0  0
292294  1  0  0  0
295296  1  0  0  0
295297  1  0  0  0
298299  1  0  0  0
298300  1  0  0  0
301302  1  0  0  0
301303  1  0  0  0
304305  1  0  0  0
304306  1  0  0  0
307308  1  0  0  0
307309  1  0  0  0
310311  1  0  0  0
310312  1  0  0  0
313314  1  0  0  0
313315  1  0  0  0
316317  1  0  0  0
316318  1  0  0  0
319320  1  0  0  0
319321  1  0  0  0
322323  1  0  0  0
322324  1  0  0  0
325326  1  0  0  0
325327  1  0  0  0
328329  1  0  0  0
328330  1  0  0  0
331332  1  0  0  0
331333  1  0  0  0
334335  1  0  0  0
334336  1  0  0  0
337338  1  0  0  0
337339  1  0  0  0
340341  1  0  0  0
340342  1  0  0  0
343344  1  0  0  0
343345  1  0  0  0
346347  1  0  0  0
346348  1  0  0  0
349350  1  0  0  0
349351  1  0  0  0
352353  1  0  0  0
352354  1  0  0  0
355356  1  0  0  0
355357  1  0  0  0
358359  1  0  0  0
358360  1  0  0  0
361362  1  0  0  0
361363  1  0  0  0
364365  1  0  0  0
364366  1  0  0  0
367368  1  0  0  0
367369  1  0  0  0
370371  1  0  0  0
370372  1  0  0  0
373374  1  0  0  0
373375  1  0  0  0
376377  1  0  0  0
376378  1  0  0  0
379380  1  0  0  0
379381  1  0  0  0
382383  1  0  0  0
382384  1  0  0  0
385386  1  0  0  0
385387  1  0  0  0
388389  1  0  0  0
388390  1  0  0  0
M  END
> <s_m_entry_id>
836

> <s_m_entry_name>
SZMAP_Mpro_7AR6.6_merged130

> <s_m_Source_Path>
C:\Users\ifige\Documents\lab_projects\Mpro\szmap\7AR6\SZMAP_7AR6

> <s_m_Source_File>
SZMAP_Mpro_7AR6.mae

> <i_m_Source_File_Index>
6

> <szmap_neut_diff_free_energy>
-8.853

> <szmap_vdw>
9.85

> <szmap_order>
0.389

> <szmap_probability>
0.168

$$$$
