7cam_chain_A_yellow_waters
                    3D
 Structure written by MMmdl.
345230  0  0  1  0            999 V2000
  -12.7440   -5.4425  -18.2711 O   0  0  0  0  0  0
  -11.8174   -5.2025  -18.2711 H   0  0  0  0  0  0
  -12.7440   -6.3997  -18.2711 H   0  0  0  0  0  0
  -12.7440   -5.4425  -18.2711 O   0  0  0  0  0  0
  -12.1143   -5.9800  -18.7516 H   0  0  0  0  0  0
  -12.2654   -5.1467  -17.4967 H   0  0  0  0  0  0
  -12.7440   -5.4425  -18.2711 O   0  0  0  0  0  0
  -12.6518   -6.3122  -18.6603 H   0  0  0  0  0  0
  -11.9696   -4.9639  -18.5669 H   0  0  0  0  0  0
  -12.2440   -8.4425  -25.2711 O   0  0  0  0  0  0
  -12.7245   -7.8128  -25.8086 H   0  0  0  0  0  0
  -11.4696   -7.9639  -24.9753 H   0  0  0  0  0  0
  -12.2440   -8.4425  -25.2711 O   0  0  0  0  0  0
  -12.6332   -8.3503  -26.1408 H   0  0  0  0  0  0
  -12.5398   -7.6681  -24.7925 H   0  0  0  0  0  0
  -20.7440   -8.4425  -36.2711 O   0  0  0  0  0  0
  -20.6518   -7.5728  -36.6603 H   0  0  0  0  0  0
  -19.9696   -8.9211  -36.5669 H   0  0  0  0  0  0
  -20.7440   -8.4425  -36.2711 O   0  0  0  0  0  0
  -19.8174   -8.6825  -36.2711 H   0  0  0  0  0  0
  -20.7440   -7.4853  -36.2711 H   0  0  0  0  0  0
  -17.2440   -8.4425  -27.2711 O   0  0  0  0  0  0
  -16.3743   -8.0533  -27.1789 H   0  0  0  0  0  0
  -17.7226   -8.1467  -26.4967 H   0  0  0  0  0  0
  -17.2440   -8.4425  -27.2711 O   0  0  0  0  0  0
  -17.1518   -9.3122  -26.8820 H   0  0  0  0  0  0
  -16.4696   -7.9639  -26.9753 H   0  0  0  0  0  0
  -22.2440   -3.9425  -39.2711 O   0  0  0  0  0  0
  -22.7245   -3.3128  -38.7336 H   0  0  0  0  0  0
  -21.4696   -3.4639  -39.5669 H   0  0  0  0  0  0
  -22.2440   -3.9425  -39.2711 O   0  0  0  0  0  0
  -21.8548   -3.8503  -38.4015 H   0  0  0  0  0  0
  -21.9482   -3.1681  -39.7497 H   0  0  0  0  0  0
  -23.2440   -4.4425  -22.7711 O   0  0  0  0  0  0
  -23.1518   -5.3122  -22.3820 H   0  0  0  0  0  0
  -22.4696   -3.9639  -22.4753 H   0  0  0  0  0  0
  -13.2440   -9.4425  -26.2711 O   0  0  0  0  0  0
  -12.7635   -8.8128  -26.8086 H   0  0  0  0  0  0
  -14.0184   -8.9639  -25.9753 H   0  0  0  0  0  0
  -15.7440   -9.9425  -27.2711 O   0  0  0  0  0  0
  -15.3548   -9.8503  -28.1408 H   0  0  0  0  0  0
  -15.4482   -9.1681  -26.7925 H   0  0  0  0  0  0
  -15.7440   -9.9425  -27.2711 O   0  0  0  0  0  0
  -14.8174  -10.1825  -27.2711 H   0  0  0  0  0  0
  -15.7440   -8.9853  -27.2711 H   0  0  0  0  0  0
  -29.7440   -4.4425  -18.2711 O   0  0  0  0  0  0
  -30.2245   -5.0722  -17.7336 H   0  0  0  0  0  0
  -28.9696   -4.9211  -18.5669 H   0  0  0  0  0  0
  -29.7440   -4.4425  -18.2711 O   0  0  0  0  0  0
  -28.8743   -4.8317  -18.1789 H   0  0  0  0  0  0
  -30.2226   -4.7383  -17.4967 H   0  0  0  0  0  0
  -22.2440  -10.4425  -19.2711 O   0  0  0  0  0  0
  -21.3743  -10.8317  -19.1789 H   0  0  0  0  0  0
  -22.7226  -10.7383  -18.4967 H   0  0  0  0  0  0
  -22.2440  -10.4425  -19.2711 O   0  0  0  0  0  0
  -22.2440  -11.3691  -19.5111 H   0  0  0  0  0  0
  -22.2440  -10.4425  -18.3139 H   0  0  0  0  0  0
  -22.2440  -10.4425  -19.2711 O   0  0  0  0  0  0
  -21.7065   -9.9620  -18.6414 H   0  0  0  0  0  0
  -22.5398  -11.2169  -18.7925 H   0  0  0  0  0  0
  -22.2440  -10.4425  -19.2711 O   0  0  0  0  0  0
  -22.7245  -11.0722  -18.7336 H   0  0  0  0  0  0
  -21.4696  -10.9211  -19.5669 H   0  0  0  0  0  0
  -26.7440   -4.9425  -20.2711 O   0  0  0  0  0  0
  -27.2245   -5.5722  -19.7336 H   0  0  0  0  0  0
  -25.9696   -5.4211  -20.5669 H   0  0  0  0  0  0
  -26.7440   -4.9425  -20.2711 O   0  0  0  0  0  0
  -26.3548   -5.0347  -19.4015 H   0  0  0  0  0  0
  -26.4482   -5.7169  -20.7497 H   0  0  0  0  0  0
  -26.7440   -4.9425  -20.2711 O   0  0  0  0  0  0
  -26.3548   -5.0347  -21.1408 H   0  0  0  0  0  0
  -26.4482   -5.7169  -19.7925 H   0  0  0  0  0  0
  -30.2440    1.0575  -39.7711 O   0  0  0  0  0  0
  -30.6332    0.9653  -38.9015 H   0  0  0  0  0  0
  -30.5398    0.2831  -40.2497 H   0  0  0  0  0  0
  -12.2440   -9.4425  -27.2711 O   0  0  0  0  0  0
  -13.1706   -9.6825  -27.2711 H   0  0  0  0  0  0
  -12.2440   -8.4853  -27.2711 H   0  0  0  0  0  0
  -29.2440    0.0575  -38.7711 O   0  0  0  0  0  0
  -29.8737    0.5950  -38.2906 H   0  0  0  0  0  0
  -29.7226   -0.2383  -39.5455 H   0  0  0  0  0  0
  -19.7440   -4.4425  -29.2711 O   0  0  0  0  0  0
  -20.3737   -4.9800  -29.7516 H   0  0  0  0  0  0
  -20.2226   -4.1467  -28.4967 H   0  0  0  0  0  0
  -19.7440   -4.4425  -29.2711 O   0  0  0  0  0  0
  -20.1332   -4.5347  -30.1408 H   0  0  0  0  0  0
  -20.0398   -5.2169  -28.7925 H   0  0  0  0  0  0
  -19.7440   -4.4425  -29.2711 O   0  0  0  0  0  0
  -20.3737   -3.9050  -28.7906 H   0  0  0  0  0  0
  -20.2226   -4.7383  -30.0455 H   0  0  0  0  0  0
  -19.7440   -4.4425  -29.2711 O   0  0  0  0  0  0
  -20.1332   -4.5347  -28.4015 H   0  0  0  0  0  0
  -20.0398   -5.2169  -29.7497 H   0  0  0  0  0  0
  -24.2440   -9.9425  -36.7711 O   0  0  0  0  0  0
  -25.1706   -9.7025  -36.7711 H   0  0  0  0  0  0
  -24.2440  -10.8997  -36.7711 H   0  0  0  0  0  0
  -24.2440   -9.9425  -36.7711 O   0  0  0  0  0  0
  -23.7635  -10.5722  -37.3086 H   0  0  0  0  0  0
  -25.0184  -10.4211  -36.4753 H   0  0  0  0  0  0
  -24.2440   -9.9425  -36.7711 O   0  0  0  0  0  0
  -25.1137  -10.3317  -36.8633 H   0  0  0  0  0  0
  -23.7654  -10.2383  -37.5455 H   0  0  0  0  0  0
  -24.2440   -9.9425  -36.7711 O   0  0  0  0  0  0
  -24.6332  -10.0347  -37.6408 H   0  0  0  0  0  0
  -24.5398  -10.7169  -36.2925 H   0  0  0  0  0  0
  -24.2440   -9.9425  -36.7711 O   0  0  0  0  0  0
  -24.3362  -10.8122  -37.1603 H   0  0  0  0  0  0
  -25.0184   -9.4639  -37.0669 H   0  0  0  0  0  0
  -25.7440   -8.9425  -21.2711 O   0  0  0  0  0  0
  -26.3737   -8.4050  -20.7906 H   0  0  0  0  0  0
  -26.2226   -9.2383  -22.0455 H   0  0  0  0  0  0
  -25.7440   -8.9425  -21.2711 O   0  0  0  0  0  0
  -26.3737   -8.4050  -21.7516 H   0  0  0  0  0  0
  -26.2226   -9.2383  -20.4967 H   0  0  0  0  0  0
  -25.7440   -8.9425  -21.2711 O   0  0  0  0  0  0
  -26.3737   -9.4800  -20.7906 H   0  0  0  0  0  0
  -26.2226   -8.6467  -22.0455 H   0  0  0  0  0  0
  -25.7440   -8.9425  -21.2711 O   0  0  0  0  0  0
  -26.3737   -9.4800  -21.7516 H   0  0  0  0  0  0
  -26.2226   -8.6467  -20.4967 H   0  0  0  0  0  0
  -25.7440   -8.9425  -21.2711 O   0  0  0  0  0  0
  -26.1332   -9.0347  -22.1408 H   0  0  0  0  0  0
  -26.0398   -9.7169  -20.7925 H   0  0  0  0  0  0
  -25.7440   -8.9425  -21.2711 O   0  0  0  0  0  0
  -26.1332   -8.8503  -22.1408 H   0  0  0  0  0  0
  -26.0398   -8.1681  -20.7925 H   0  0  0  0  0  0
  -25.2440   -8.9425  -22.2711 O   0  0  0  0  0  0
  -25.3362   -8.0728  -22.6603 H   0  0  0  0  0  0
  -26.0184   -9.4211  -22.5669 H   0  0  0  0  0  0
  -25.2440   -8.9425  -22.2711 O   0  0  0  0  0  0
  -25.0040   -8.9425  -23.1977 H   0  0  0  0  0  0
  -26.2012   -8.9425  -22.2711 H   0  0  0  0  0  0
  -25.2440   -8.9425  -22.2711 O   0  0  0  0  0  0
  -25.3362   -9.8122  -22.6603 H   0  0  0  0  0  0
  -26.0184   -8.4639  -22.5669 H   0  0  0  0  0  0
  -25.2440   -8.9425  -22.2711 O   0  0  0  0  0  0
  -25.7815   -8.4620  -22.9008 H   0  0  0  0  0  0
  -24.9482   -9.7169  -22.7497 H   0  0  0  0  0  0
  -25.2440   -8.9425  -22.2711 O   0  0  0  0  0  0
  -26.1137   -8.5533  -22.3633 H   0  0  0  0  0  0
  -24.7654   -8.6467  -23.0455 H   0  0  0  0  0  0
  -18.7440   -7.4425  -36.7711 O   0  0  0  0  0  0
  -18.8362   -8.3122  -36.3820 H   0  0  0  0  0  0
  -19.5184   -6.9639  -36.4753 H   0  0  0  0  0  0
  -18.7440   -7.4425  -36.7711 O   0  0  0  0  0  0
  -19.2815   -6.9620  -36.1414 H   0  0  0  0  0  0
  -18.4482   -8.2169  -36.2925 H   0  0  0  0  0  0
  -21.7440   -2.4425  -27.7711 O   0  0  0  0  0  0
  -20.8174   -2.6825  -27.7711 H   0  0  0  0  0  0
  -21.7440   -1.4853  -27.7711 H   0  0  0  0  0  0
  -21.7440   -2.4425  -27.7711 O   0  0  0  0  0  0
  -22.2245   -1.8128  -28.3086 H   0  0  0  0  0  0
  -20.9696   -1.9639  -27.4753 H   0  0  0  0  0  0
  -24.2440   -4.4425  -18.2711 O   0  0  0  0  0  0
  -23.7635   -3.8128  -17.7336 H   0  0  0  0  0  0
  -25.0184   -3.9639  -18.5669 H   0  0  0  0  0  0
  -24.2440   -4.4425  -18.2711 O   0  0  0  0  0  0
  -24.2440   -3.5159  -18.5111 H   0  0  0  0  0  0
  -24.2440   -4.4425  -17.3139 H   0  0  0  0  0  0
  -19.7440   -5.4425  -31.7711 O   0  0  0  0  0  0
  -19.9840   -5.4425  -32.6977 H   0  0  0  0  0  0
  -18.7868   -5.4425  -31.7711 H   0  0  0  0  0  0
  -19.7440   -5.4425  -31.7711 O   0  0  0  0  0  0
  -18.8174   -5.2025  -31.7711 H   0  0  0  0  0  0
  -19.7440   -6.3997  -31.7711 H   0  0  0  0  0  0
  -19.7440   -5.4425  -31.7711 O   0  0  0  0  0  0
  -18.8174   -5.6825  -31.7711 H   0  0  0  0  0  0
  -19.7440   -4.4853  -31.7711 H   0  0  0  0  0  0
  -15.2440   -2.4425  -40.2711 O   0  0  0  0  0  0
  -15.4840   -2.4425  -41.1977 H   0  0  0  0  0  0
  -14.2868   -2.4425  -40.2711 H   0  0  0  0  0  0
  -15.2440   -2.4425  -40.2711 O   0  0  0  0  0  0
  -14.3174   -2.6825  -40.2711 H   0  0  0  0  0  0
  -15.2440   -1.4853  -40.2711 H   0  0  0  0  0  0
  -21.2440   -6.9425  -31.2711 O   0  0  0  0  0  0
  -21.7815   -7.4230  -31.9008 H   0  0  0  0  0  0
  -20.9482   -6.1681  -31.7497 H   0  0  0  0  0  0
  -21.2440   -6.9425  -31.2711 O   0  0  0  0  0  0
  -21.8737   -6.4050  -30.7906 H   0  0  0  0  0  0
  -21.7226   -7.2383  -32.0455 H   0  0  0  0  0  0
  -21.2440   -6.9425  -31.2711 O   0  0  0  0  0  0
  -20.3743   -7.3317  -31.3633 H   0  0  0  0  0  0
  -21.7226   -7.2383  -32.0455 H   0  0  0  0  0  0
  -21.2440   -6.9425  -31.2711 O   0  0  0  0  0  0
  -21.6332   -7.0347  -32.1408 H   0  0  0  0  0  0
  -21.5398   -7.7169  -30.7925 H   0  0  0  0  0  0
  -27.2440   -2.9425  -27.2711 O   0  0  0  0  0  0
  -27.8737   -2.4050  -26.7906 H   0  0  0  0  0  0
  -27.7226   -3.2383  -28.0455 H   0  0  0  0  0  0
  -27.2440   -2.9425  -27.2711 O   0  0  0  0  0  0
  -28.1706   -2.7025  -27.2711 H   0  0  0  0  0  0
  -27.2440   -3.8997  -27.2711 H   0  0  0  0  0  0
  -29.2440   -6.9425  -31.2711 O   0  0  0  0  0  0
  -29.8737   -7.4800  -31.7516 H   0  0  0  0  0  0
  -29.7226   -6.6467  -30.4967 H   0  0  0  0  0  0
  -20.2440   -7.9425  -32.2711 O   0  0  0  0  0  0
  -20.3362   -8.8122  -32.6603 H   0  0  0  0  0  0
  -21.0184   -7.4639  -32.5669 H   0  0  0  0  0  0
  -20.2440   -7.9425  -32.2711 O   0  0  0  0  0  0
  -20.8737   -7.4050  -32.7516 H   0  0  0  0  0  0
  -20.7226   -8.2383  -31.4967 H   0  0  0  0  0  0
  -20.2440   -7.9425  -32.2711 O   0  0  0  0  0  0
  -19.7635   -7.3128  -31.7336 H   0  0  0  0  0  0
  -21.0184   -7.4639  -32.5669 H   0  0  0  0  0  0
  -20.2440   -7.9425  -32.2711 O   0  0  0  0  0  0
  -21.1137   -7.5533  -32.3633 H   0  0  0  0  0  0
  -19.7654   -7.6467  -33.0455 H   0  0  0  0  0  0
  -28.7440   -7.9425  -21.7711 O   0  0  0  0  0  0
  -28.2635   -7.3128  -22.3086 H   0  0  0  0  0  0
  -29.5184   -7.4639  -21.4753 H   0  0  0  0  0  0
  -28.7440   -7.9425  -21.7711 O   0  0  0  0  0  0
  -29.1332   -7.8503  -22.6408 H   0  0  0  0  0  0
  -29.0398   -7.1681  -21.2925 H   0  0  0  0  0  0
  -28.7440   -7.9425  -21.7711 O   0  0  0  0  0  0
  -29.6137   -7.5533  -21.6789 H   0  0  0  0  0  0
  -28.2654   -7.6467  -20.9967 H   0  0  0  0  0  0
  -28.7440   -7.9425  -21.7711 O   0  0  0  0  0  0
  -29.6706   -8.1825  -21.7711 H   0  0  0  0  0  0
  -28.7440   -6.9853  -21.7711 H   0  0  0  0  0  0
  -28.7440   -7.9425  -21.7711 O   0  0  0  0  0  0
  -29.3737   -7.4050  -21.2906 H   0  0  0  0  0  0
  -29.2226   -8.2383  -22.5455 H   0  0  0  0  0  0
  -30.2440  -11.4425  -29.7711 O   0  0  0  0  0  0
  -29.6143  -10.9050  -30.2516 H   0  0  0  0  0  0
  -29.7654  -11.7383  -28.9967 H   0  0  0  0  0  0
  -30.2440  -11.4425  -29.7711 O   0  0  0  0  0  0
  -29.6143  -11.9800  -29.2906 H   0  0  0  0  0  0
  -29.7654  -11.1467  -30.5455 H   0  0  0  0  0  0
  -30.2440  -11.4425  -29.7711 O   0  0  0  0  0  0
  -30.1518  -12.3122  -30.1603 H   0  0  0  0  0  0
  -29.4696  -10.9639  -30.0669 H   0  0  0  0  0  0
  -30.2440  -11.4425  -29.7711 O   0  0  0  0  0  0
  -29.8548  -11.5347  -30.6408 H   0  0  0  0  0  0
  -29.9482  -12.2169  -29.2925 H   0  0  0  0  0  0
  -31.2440   -8.4425  -22.7711 O   0  0  0  0  0  0
  -30.6143   -7.9050  -22.2906 H   0  0  0  0  0  0
  -30.7654   -8.7383  -23.5455 H   0  0  0  0  0  0
  -31.2440   -8.4425  -22.7711 O   0  0  0  0  0  0
  -31.1518   -9.3122  -22.3820 H   0  0  0  0  0  0
  -30.4696   -7.9639  -22.4753 H   0  0  0  0  0  0
  -19.2440   -6.9425  -18.2711 O   0  0  0  0  0  0
  -18.3743   -7.3317  -18.1789 H   0  0  0  0  0  0
  -19.7226   -7.2383  -17.4967 H   0  0  0  0  0  0
  -19.2440   -6.9425  -18.2711 O   0  0  0  0  0  0
  -19.7245   -7.5722  -17.7336 H   0  0  0  0  0  0
  -18.4696   -7.4211  -18.5669 H   0  0  0  0  0  0
  -19.2440   -6.9425  -18.2711 O   0  0  0  0  0  0
  -19.2440   -7.8691  -18.5111 H   0  0  0  0  0  0
  -19.2440   -6.9425  -17.3139 H   0  0  0  0  0  0
  -20.2440   -6.4425  -33.2711 O   0  0  0  0  0  0
  -20.3362   -5.5728  -32.8820 H   0  0  0  0  0  0
  -21.0184   -6.9211  -32.9753 H   0  0  0  0  0  0
  -20.2440   -6.4425  -33.2711 O   0  0  0  0  0  0
  -21.1137   -6.8317  -33.1789 H   0  0  0  0  0  0
  -19.7654   -6.7383  -32.4967 H   0  0  0  0  0  0
  -20.2440   -6.4425  -33.2711 O   0  0  0  0  0  0
  -21.1706   -6.6825  -33.2711 H   0  0  0  0  0  0
  -20.2440   -5.4853  -33.2711 H   0  0  0  0  0  0
  -20.2440   -6.4425  -33.2711 O   0  0  0  0  0  0
  -20.8737   -6.9800  -32.7906 H   0  0  0  0  0  0
  -20.7226   -6.1467  -34.0455 H   0  0  0  0  0  0
  -18.7440   -6.9425  -32.7711 O   0  0  0  0  0  0
  -18.2635   -6.3128  -32.2336 H   0  0  0  0  0  0
  -19.5184   -6.4639  -33.0669 H   0  0  0  0  0  0
  -18.7440   -6.9425  -32.7711 O   0  0  0  0  0  0
  -18.6518   -6.0728  -32.3820 H   0  0  0  0  0  0
  -17.9696   -7.4211  -32.4753 H   0  0  0  0  0  0
  -28.7440   -9.9425  -32.2711 O   0  0  0  0  0  0
  -29.3737   -9.4050  -31.7906 H   0  0  0  0  0  0
  -29.2226  -10.2383  -33.0455 H   0  0  0  0  0  0
  -28.7440   -9.9425  -32.2711 O   0  0  0  0  0  0
  -29.6137   -9.5533  -32.1789 H   0  0  0  0  0  0
  -28.2654   -9.6467  -31.4967 H   0  0  0  0  0  0
  -28.7440   -9.9425  -32.2711 O   0  0  0  0  0  0
  -28.8362  -10.8122  -31.8820 H   0  0  0  0  0  0
  -29.5184   -9.4639  -31.9753 H   0  0  0  0  0  0
  -25.7440    2.5575  -37.2711 O   0  0  0  0  0  0
  -25.2065    3.0380  -36.6414 H   0  0  0  0  0  0
  -26.0398    1.7831  -36.7925 H   0  0  0  0  0  0
  -25.7440    2.5575  -37.2711 O   0  0  0  0  0  0
  -26.2815    2.0770  -36.6414 H   0  0  0  0  0  0
  -25.4482    3.3319  -36.7925 H   0  0  0  0  0  0
  -25.2440   -6.4425  -22.2711 O   0  0  0  0  0  0
  -25.4840   -6.4425  -23.1977 H   0  0  0  0  0  0
  -24.2868   -6.4425  -22.2711 H   0  0  0  0  0  0
  -25.2440   -6.4425  -22.2711 O   0  0  0  0  0  0
  -25.4840   -6.4425  -21.3445 H   0  0  0  0  0  0
  -24.2868   -6.4425  -22.2711 H   0  0  0  0  0  0
  -17.7440   -2.4425  -23.2711 O   0  0  0  0  0  0
  -18.1332   -2.5347  -24.1408 H   0  0  0  0  0  0
  -18.0398   -3.2169  -22.7925 H   0  0  0  0  0  0
  -13.2440    2.5575  -33.7711 O   0  0  0  0  0  0
  -13.7245    3.1872  -34.3086 H   0  0  0  0  0  0
  -12.4696    3.0361  -33.4753 H   0  0  0  0  0  0
  -12.7440   -8.9425  -22.2711 O   0  0  0  0  0  0
  -12.2065   -9.4230  -22.9008 H   0  0  0  0  0  0
  -13.0398   -8.1681  -22.7497 H   0  0  0  0  0  0
  -28.7440   -8.4425  -32.2711 O   0  0  0  0  0  0
  -28.8362   -7.5728  -31.8820 H   0  0  0  0  0  0
  -29.5184   -8.9211  -31.9753 H   0  0  0  0  0  0
  -28.7440   -8.4425  -32.2711 O   0  0  0  0  0  0
  -29.3737   -8.9800  -31.7906 H   0  0  0  0  0  0
  -29.2226   -8.1467  -33.0455 H   0  0  0  0  0  0
  -28.7440   -8.4425  -32.2711 O   0  0  0  0  0  0
  -29.6137   -8.8317  -32.1789 H   0  0  0  0  0  0
  -28.2654   -8.7383  -31.4967 H   0  0  0  0  0  0
  -24.7440   -6.9425  -23.7711 O   0  0  0  0  0  0
  -24.1143   -7.4800  -24.2516 H   0  0  0  0  0  0
  -24.2654   -6.6467  -22.9967 H   0  0  0  0  0  0
  -24.7440   -6.9425  -23.7711 O   0  0  0  0  0  0
  -24.3548   -6.8503  -22.9015 H   0  0  0  0  0  0
  -24.4482   -6.1681  -24.2497 H   0  0  0  0  0  0
  -24.7440   -6.9425  -23.7711 O   0  0  0  0  0  0
  -25.6137   -6.5533  -23.6789 H   0  0  0  0  0  0
  -24.2654   -6.6467  -22.9967 H   0  0  0  0  0  0
  -24.7440   -6.9425  -23.7711 O   0  0  0  0  0  0
  -24.9840   -6.9425  -22.8445 H   0  0  0  0  0  0
  -23.7868   -6.9425  -23.7711 H   0  0  0  0  0  0
  -21.2440   -4.4425  -35.2711 O   0  0  0  0  0  0
  -20.7635   -3.8128  -34.7336 H   0  0  0  0  0  0
  -22.0184   -3.9639  -35.5669 H   0  0  0  0  0  0
  -18.2440   -7.4425  -31.2711 O   0  0  0  0  0  0
  -18.1518   -6.5728  -31.6603 H   0  0  0  0  0  0
  -17.4696   -7.9211  -31.5669 H   0  0  0  0  0  0
  -18.2440   -7.4425  -31.2711 O   0  0  0  0  0  0
  -17.8548   -7.3503  -30.4015 H   0  0  0  0  0  0
  -17.9482   -6.6681  -31.7497 H   0  0  0  0  0  0
  -18.2440   -7.4425  -31.2711 O   0  0  0  0  0  0
  -18.2440   -6.5159  -31.5111 H   0  0  0  0  0  0
  -18.2440   -7.4425  -30.3139 H   0  0  0  0  0  0
  -30.2440  -11.4425  -32.2711 O   0  0  0  0  0  0
  -30.6332  -11.3503  -33.1408 H   0  0  0  0  0  0
  -30.5398  -10.6681  -31.7925 H   0  0  0  0  0  0
  -30.2440  -11.4425  -32.2711 O   0  0  0  0  0  0
  -30.3362  -10.5728  -31.8820 H   0  0  0  0  0  0
  -31.0184  -11.9211  -31.9753 H   0  0  0  0  0  0
  -30.2440  -11.4425  -32.2711 O   0  0  0  0  0  0
  -31.1706  -11.6825  -32.2711 H   0  0  0  0  0  0
  -30.2440  -10.4853  -32.2711 H   0  0  0  0  0  0
  -30.2440  -11.4425  -32.2711 O   0  0  0  0  0  0
  -29.7065  -11.9230  -31.6414 H   0  0  0  0  0  0
  -30.5398  -10.6681  -31.7925 H   0  0  0  0  0  0
  -30.2440  -11.4425  -32.2711 O   0  0  0  0  0  0
  -30.2440  -10.5159  -32.0311 H   0  0  0  0  0  0
  -30.2440  -11.4425  -33.2283 H   0  0  0  0  0  0
  1  2  1  0  0  0
  1  3  1  0  0  0
  4  5  1  0  0  0
  4  6  1  0  0  0
  7  8  1  0  0  0
  7  9  1  0  0  0
 10 11  1  0  0  0
 10 12  1  0  0  0
 13 14  1  0  0  0
 13 15  1  0  0  0
 16 17  1  0  0  0
 16 18  1  0  0  0
 19 20  1  0  0  0
 19 21  1  0  0  0
 22 23  1  0  0  0
 22 24  1  0  0  0
 25 26  1  0  0  0
 25 27  1  0  0  0
 28 29  1  0  0  0
 28 30  1  0  0  0
 31 32  1  0  0  0
 31 33  1  0  0  0
 34 35  1  0  0  0
 34 36  1  0  0  0
 37 38  1  0  0  0
 37 39  1  0  0  0
 40 41  1  0  0  0
 40 42  1  0  0  0
 43 44  1  0  0  0
 43 45  1  0  0  0
 46 47  1  0  0  0
 46 48  1  0  0  0
 49 50  1  0  0  0
 49 51  1  0  0  0
 52 53  1  0  0  0
 52 54  1  0  0  0
 55 56  1  0  0  0
 55 57  1  0  0  0
 58 59  1  0  0  0
 58 60  1  0  0  0
 61 62  1  0  0  0
 61 63  1  0  0  0
 64 65  1  0  0  0
 64 66  1  0  0  0
 67 68  1  0  0  0
 67 69  1  0  0  0
 70 71  1  0  0  0
 70 72  1  0  0  0
 73 74  1  0  0  0
 73 75  1  0  0  0
 76 77  1  0  0  0
 76 78  1  0  0  0
 79 80  1  0  0  0
 79 81  1  0  0  0
 82 83  1  0  0  0
 82 84  1  0  0  0
 85 86  1  0  0  0
 85 87  1  0  0  0
 88 89  1  0  0  0
 88 90  1  0  0  0
 91 92  1  0  0  0
 91 93  1  0  0  0
 94 95  1  0  0  0
 94 96  1  0  0  0
 97 98  1  0  0  0
 97 99  1  0  0  0
100101  1  0  0  0
100102  1  0  0  0
103104  1  0  0  0
103105  1  0  0  0
106107  1  0  0  0
106108  1  0  0  0
109110  1  0  0  0
109111  1  0  0  0
112113  1  0  0  0
112114  1  0  0  0
115116  1  0  0  0
115117  1  0  0  0
118119  1  0  0  0
118120  1  0  0  0
121122  1  0  0  0
121123  1  0  0  0
124125  1  0  0  0
124126  1  0  0  0
127128  1  0  0  0
127129  1  0  0  0
130131  1  0  0  0
130132  1  0  0  0
133134  1  0  0  0
133135  1  0  0  0
136137  1  0  0  0
136138  1  0  0  0
139140  1  0  0  0
139141  1  0  0  0
142143  1  0  0  0
142144  1  0  0  0
145146  1  0  0  0
145147  1  0  0  0
148149  1  0  0  0
148150  1  0  0  0
151152  1  0  0  0
151153  1  0  0  0
154155  1  0  0  0
154156  1  0  0  0
157158  1  0  0  0
157159  1  0  0  0
160161  1  0  0  0
160162  1  0  0  0
163164  1  0  0  0
163165  1  0  0  0
166167  1  0  0  0
166168  1  0  0  0
169170  1  0  0  0
169171  1  0  0  0
172173  1  0  0  0
172174  1  0  0  0
175176  1  0  0  0
175177  1  0  0  0
178179  1  0  0  0
178180  1  0  0  0
181182  1  0  0  0
181183  1  0  0  0
184185  1  0  0  0
184186  1  0  0  0
187188  1  0  0  0
187189  1  0  0  0
190191  1  0  0  0
190192  1  0  0  0
193194  1  0  0  0
193195  1  0  0  0
196197  1  0  0  0
196198  1  0  0  0
199200  1  0  0  0
199201  1  0  0  0
202203  1  0  0  0
202204  1  0  0  0
205206  1  0  0  0
205207  1  0  0  0
208209  1  0  0  0
208210  1  0  0  0
211212  1  0  0  0
211213  1  0  0  0
214215  1  0  0  0
214216  1  0  0  0
217218  1  0  0  0
217219  1  0  0  0
220221  1  0  0  0
220222  1  0  0  0
223224  1  0  0  0
223225  1  0  0  0
226227  1  0  0  0
226228  1  0  0  0
229230  1  0  0  0
229231  1  0  0  0
232233  1  0  0  0
232234  1  0  0  0
235236  1  0  0  0
235237  1  0  0  0
238239  1  0  0  0
238240  1  0  0  0
241242  1  0  0  0
241243  1  0  0  0
244245  1  0  0  0
244246  1  0  0  0
247248  1  0  0  0
247249  1  0  0  0
250251  1  0  0  0
250252  1  0  0  0
253254  1  0  0  0
253255  1  0  0  0
256257  1  0  0  0
256258  1  0  0  0
259260  1  0  0  0
259261  1  0  0  0
262263  1  0  0  0
262264  1  0  0  0
265266  1  0  0  0
265267  1  0  0  0
268269  1  0  0  0
268270  1  0  0  0
271272  1  0  0  0
271273  1  0  0  0
274275  1  0  0  0
274276  1  0  0  0
277278  1  0  0  0
277279  1  0  0  0
280281  1  0  0  0
280282  1  0  0  0
283284  1  0  0  0
283285  1  0  0  0
286287  1  0  0  0
286288  1  0  0  0
289290  1  0  0  0
289291  1  0  0  0
292293  1  0  0  0
292294  1  0  0  0
295296  1  0  0  0
295297  1  0  0  0
298299  1  0  0  0
298300  1  0  0  0
301302  1  0  0  0
301303  1  0  0  0
304305  1  0  0  0
304306  1  0  0  0
307308  1  0  0  0
307309  1  0  0  0
310311  1  0  0  0
310312  1  0  0  0
313314  1  0  0  0
313315  1  0  0  0
316317  1  0  0  0
316318  1  0  0  0
319320  1  0  0  0
319321  1  0  0  0
322323  1  0  0  0
322324  1  0  0  0
325326  1  0  0  0
325327  1  0  0  0
328329  1  0  0  0
328330  1  0  0  0
331332  1  0  0  0
331333  1  0  0  0
334335  1  0  0  0
334336  1  0  0  0
337338  1  0  0  0
337339  1  0  0  0
340341  1  0  0  0
340342  1  0  0  0
343344  1  0  0  0
343345  1  0  0  0
M  END
> <s_m_entry_id>
8305

> <s_m_entry_name>
SZMAP_Mpro_7CAM_chain_A.6_merged115

> <s_m_Source_Path>
C:\Users\ifige\Documents\lab_projects\Mpro\szmap\7CAM_chain_A\SZMAP_7CAM_chain_A

> <s_m_Source_File>
SZMAP_Mpro_7CAM_chain_A.mae

> <i_m_Source_File_Index>
6

> <szmap_neut_diff_free_energy>
-6.726

> <szmap_vdw>
7.052

> <szmap_order>
0.369

> <szmap_probability>
0.141

$$$$
