7e5x_chain_A_yellow_waters
                    3D
 Structure written by MMmdl.
396264  0  0  1  0            999 V2000
  -25.7440   -7.9425  -21.2711 O   0  0  0  0  0  0
  -26.3737   -8.4800  -20.7906 H   0  0  0  0  0  0
  -26.2226   -7.6467  -22.0455 H   0  0  0  0  0  0
  -25.7440   -7.9425  -21.2711 O   0  0  0  0  0  0
  -26.3737   -8.4800  -21.7516 H   0  0  0  0  0  0
  -26.2226   -7.6467  -20.4967 H   0  0  0  0  0  0
  -25.7440   -7.9425  -21.2711 O   0  0  0  0  0  0
  -26.3737   -7.4050  -21.7516 H   0  0  0  0  0  0
  -26.2226   -8.2383  -20.4967 H   0  0  0  0  0  0
  -15.7440   -7.4425  -24.2711 O   0  0  0  0  0  0
  -15.1143   -6.9050  -23.7906 H   0  0  0  0  0  0
  -15.2654   -7.7383  -25.0455 H   0  0  0  0  0  0
  -13.2440   -7.9425  -24.2711 O   0  0  0  0  0  0
  -13.6332   -7.8503  -25.1408 H   0  0  0  0  0  0
  -13.5398   -7.1681  -23.7925 H   0  0  0  0  0  0
  -26.2440   -8.4425  -31.7711 O   0  0  0  0  0  0
  -26.3362   -7.5728  -31.3820 H   0  0  0  0  0  0
  -27.0184   -8.9211  -31.4753 H   0  0  0  0  0  0
  -26.2440   -8.4425  -31.7711 O   0  0  0  0  0  0
  -26.3362   -9.3122  -31.3820 H   0  0  0  0  0  0
  -27.0184   -7.9639  -31.4753 H   0  0  0  0  0  0
  -26.2440   -8.4425  -31.7711 O   0  0  0  0  0  0
  -26.0040   -8.4425  -30.8445 H   0  0  0  0  0  0
  -27.2012   -8.4425  -31.7711 H   0  0  0  0  0  0
  -22.7440   -9.4425  -18.7711 O   0  0  0  0  0  0
  -21.8743   -9.8317  -18.6789 H   0  0  0  0  0  0
  -23.2226   -9.7383  -17.9967 H   0  0  0  0  0  0
  -22.7440   -9.4425  -18.7711 O   0  0  0  0  0  0
  -22.2065   -8.9620  -18.1414 H   0  0  0  0  0  0
  -23.0398  -10.2169  -18.2925 H   0  0  0  0  0  0
  -22.7440   -9.4425  -18.7711 O   0  0  0  0  0  0
  -22.7440  -10.3691  -19.0111 H   0  0  0  0  0  0
  -22.7440   -9.4425  -17.8139 H   0  0  0  0  0  0
  -12.7440  -10.9425  -26.7711 O   0  0  0  0  0  0
  -13.1332  -10.8503  -25.9015 H   0  0  0  0  0  0
  -13.0398  -10.1681  -27.2497 H   0  0  0  0  0  0
  -12.7440  -10.9425  -26.7711 O   0  0  0  0  0  0
  -13.2245  -10.3128  -27.3086 H   0  0  0  0  0  0
  -11.9696  -10.4639  -26.4753 H   0  0  0  0  0  0
  -12.7440  -10.9425  -28.2711 O   0  0  0  0  0  0
  -13.1332  -10.8503  -29.1408 H   0  0  0  0  0  0
  -13.0398  -10.1681  -27.7925 H   0  0  0  0  0  0
  -28.2440   -3.4425  -39.7711 O   0  0  0  0  0  0
  -28.6332   -3.5347  -40.6408 H   0  0  0  0  0  0
  -28.5398   -4.2169  -39.2925 H   0  0  0  0  0  0
  -22.2440   -8.4425  -31.2711 O   0  0  0  0  0  0
  -22.1518   -9.3122  -30.8820 H   0  0  0  0  0  0
  -21.4696   -7.9639  -30.9753 H   0  0  0  0  0  0
  -22.2440   -8.4425  -31.2711 O   0  0  0  0  0  0
  -22.4840   -8.4425  -30.3445 H   0  0  0  0  0  0
  -21.2868   -8.4425  -31.2711 H   0  0  0  0  0  0
  -22.2440   -8.4425  -31.2711 O   0  0  0  0  0  0
  -22.1518   -7.5728  -30.8820 H   0  0  0  0  0  0
  -21.4696   -8.9211  -30.9753 H   0  0  0  0  0  0
  -22.2440   -8.4425  -31.2711 O   0  0  0  0  0  0
  -21.3743   -8.8317  -31.1789 H   0  0  0  0  0  0
  -22.7226   -8.7383  -30.4967 H   0  0  0  0  0  0
  -31.2440   -5.9425  -23.2711 O   0  0  0  0  0  0
  -30.3174   -6.1825  -23.2711 H   0  0  0  0  0  0
  -31.2440   -4.9853  -23.2711 H   0  0  0  0  0  0
  -31.2440   -5.9425  -23.2711 O   0  0  0  0  0  0
  -31.1518   -5.0728  -23.6603 H   0  0  0  0  0  0
  -30.4696   -6.4211  -23.5669 H   0  0  0  0  0  0
  -27.2440   -2.4425  -26.7711 O   0  0  0  0  0  0
  -28.1706   -2.2025  -26.7711 H   0  0  0  0  0  0
  -27.2440   -3.3997  -26.7711 H   0  0  0  0  0  0
  -27.2440   -2.4425  -26.7711 O   0  0  0  0  0  0
  -27.3362   -3.3122  -27.1603 H   0  0  0  0  0  0
  -28.0184   -1.9639  -27.0669 H   0  0  0  0  0  0
  -25.2440    2.0575  -37.2711 O   0  0  0  0  0  0
  -25.2440    2.9841  -37.5111 H   0  0  0  0  0  0
  -25.2440    2.0575  -36.3139 H   0  0  0  0  0  0
  -27.7440   -4.4425  -20.7711 O   0  0  0  0  0  0
  -27.3548   -4.5347  -21.6408 H   0  0  0  0  0  0
  -27.4482   -5.2169  -20.2925 H   0  0  0  0  0  0
  -27.7440   -4.4425  -20.7711 O   0  0  0  0  0  0
  -28.2245   -5.0722  -20.2336 H   0  0  0  0  0  0
  -26.9696   -4.9211  -21.0669 H   0  0  0  0  0  0
  -27.7440   -4.4425  -20.7711 O   0  0  0  0  0  0
  -28.2245   -5.0722  -21.3086 H   0  0  0  0  0  0
  -26.9696   -4.9211  -20.4753 H   0  0  0  0  0  0
  -12.7440   -4.4425  -18.2711 O   0  0  0  0  0  0
  -12.3548   -4.3503  -17.4015 H   0  0  0  0  0  0
  -12.4482   -3.6681  -18.7497 H   0  0  0  0  0  0
  -12.7440   -4.4425  -18.2711 O   0  0  0  0  0  0
  -12.1143   -3.9050  -18.7516 H   0  0  0  0  0  0
  -12.2654   -4.7383  -17.4967 H   0  0  0  0  0  0
  -12.7440   -4.4425  -18.2711 O   0  0  0  0  0  0
  -12.6518   -3.5728  -18.6603 H   0  0  0  0  0  0
  -11.9696   -4.9211  -18.5669 H   0  0  0  0  0  0
  -12.7440   -4.4425  -18.2711 O   0  0  0  0  0  0
  -12.1143   -4.9800  -17.7906 H   0  0  0  0  0  0
  -12.2654   -4.1467  -19.0455 H   0  0  0  0  0  0
  -27.2440   -5.9425  -39.7711 O   0  0  0  0  0  0
  -27.7815   -5.4620  -39.1414 H   0  0  0  0  0  0
  -26.9482   -6.7169  -39.2925 H   0  0  0  0  0  0
  -14.2440  -10.4425  -29.2711 O   0  0  0  0  0  0
  -13.7635   -9.8128  -28.7336 H   0  0  0  0  0  0
  -15.0184   -9.9639  -29.5669 H   0  0  0  0  0  0
  -14.2440  -10.4425  -29.2711 O   0  0  0  0  0  0
  -13.8548  -10.3503  -30.1408 H   0  0  0  0  0  0
  -13.9482   -9.6681  -28.7925 H   0  0  0  0  0  0
  -14.2440  -10.4425  -29.2711 O   0  0  0  0  0  0
  -13.8548  -10.3503  -28.4015 H   0  0  0  0  0  0
  -13.9482   -9.6681  -29.7497 H   0  0  0  0  0  0
  -14.7440  -10.9425  -27.2711 O   0  0  0  0  0  0
  -15.2245  -10.3128  -26.7336 H   0  0  0  0  0  0
  -13.9696  -10.4639  -27.5669 H   0  0  0  0  0  0
  -14.7440  -10.9425  -27.2711 O   0  0  0  0  0  0
  -14.3548  -10.8503  -26.4015 H   0  0  0  0  0  0
  -14.4482  -10.1681  -27.7497 H   0  0  0  0  0  0
  -13.7440   -9.9425  -25.2711 O   0  0  0  0  0  0
  -13.7440   -9.0159  -25.0311 H   0  0  0  0  0  0
  -13.7440   -9.9425  -26.2283 H   0  0  0  0  0  0
  -21.2440   -4.4425  -23.2711 O   0  0  0  0  0  0
  -20.7065   -3.9620  -23.9008 H   0  0  0  0  0  0
  -21.5398   -5.2169  -23.7497 H   0  0  0  0  0  0
  -21.2440   -4.4425  -23.2711 O   0  0  0  0  0  0
  -22.1137   -4.8317  -23.3633 H   0  0  0  0  0  0
  -20.7654   -4.7383  -24.0455 H   0  0  0  0  0  0
  -21.2440   -4.4425  -23.2711 O   0  0  0  0  0  0
  -21.7815   -4.9230  -23.9008 H   0  0  0  0  0  0
  -20.9482   -3.6681  -23.7497 H   0  0  0  0  0  0
  -20.2440   -3.4425  -22.7711 O   0  0  0  0  0  0
  -19.3743   -3.8317  -22.8633 H   0  0  0  0  0  0
  -20.7226   -3.7383  -23.5455 H   0  0  0  0  0  0
  -22.2440   -3.9425  -22.7711 O   0  0  0  0  0  0
  -22.0040   -3.9425  -23.6977 H   0  0  0  0  0  0
  -23.2012   -3.9425  -22.7711 H   0  0  0  0  0  0
  -22.2440   -3.9425  -22.7711 O   0  0  0  0  0  0
  -22.3362   -3.0728  -23.1603 H   0  0  0  0  0  0
  -23.0184   -4.4211  -23.0669 H   0  0  0  0  0  0
  -22.2440   -3.9425  -22.7711 O   0  0  0  0  0  0
  -21.7065   -3.4620  -23.4008 H   0  0  0  0  0  0
  -22.5398   -4.7169  -23.2497 H   0  0  0  0  0  0
  -22.2440   -3.9425  -22.7711 O   0  0  0  0  0  0
  -23.1137   -4.3317  -22.8633 H   0  0  0  0  0  0
  -21.7654   -4.2383  -23.5455 H   0  0  0  0  0  0
  -20.7440   -7.4425  -35.7711 O   0  0  0  0  0  0
  -21.3737   -7.9800  -35.2906 H   0  0  0  0  0  0
  -21.2226   -7.1467  -36.5455 H   0  0  0  0  0  0
  -18.7440   -7.4425  -37.2711 O   0  0  0  0  0  0
  -19.6137   -7.0533  -37.1789 H   0  0  0  0  0  0
  -18.2654   -7.1467  -36.4967 H   0  0  0  0  0  0
  -18.7440   -7.4425  -37.2711 O   0  0  0  0  0  0
  -18.5040   -7.4425  -36.3445 H   0  0  0  0  0  0
  -19.7012   -7.4425  -37.2711 H   0  0  0  0  0  0
  -31.2440  -11.4425  -30.2711 O   0  0  0  0  0  0
  -30.3743  -11.8317  -30.3633 H   0  0  0  0  0  0
  -31.7226  -11.7383  -31.0455 H   0  0  0  0  0  0
  -31.2440  -11.4425  -30.2711 O   0  0  0  0  0  0
  -32.1137  -11.8317  -30.3633 H   0  0  0  0  0  0
  -30.7654  -11.7383  -31.0455 H   0  0  0  0  0  0
  -31.2440  -11.4425  -30.2711 O   0  0  0  0  0  0
  -31.2440  -12.3691  -30.0311 H   0  0  0  0  0  0
  -31.2440  -11.4425  -31.2283 H   0  0  0  0  0  0
  -31.2440  -11.4425  -30.2711 O   0  0  0  0  0  0
  -30.8548  -11.5347  -31.1408 H   0  0  0  0  0  0
  -30.9482  -12.2169  -29.7925 H   0  0  0  0  0  0
  -31.2440  -11.4425  -30.2711 O   0  0  0  0  0  0
  -31.7245  -12.0722  -30.8086 H   0  0  0  0  0  0
  -30.4696  -11.9211  -29.9753 H   0  0  0  0  0  0
  -21.7440   -2.9425  -27.7711 O   0  0  0  0  0  0
  -21.3548   -2.8503  -26.9015 H   0  0  0  0  0  0
  -21.4482   -2.1681  -28.2497 H   0  0  0  0  0  0
  -21.7440   -2.9425  -27.7711 O   0  0  0  0  0  0
  -20.8174   -3.1825  -27.7711 H   0  0  0  0  0  0
  -21.7440   -1.9853  -27.7711 H   0  0  0  0  0  0
  -21.7440   -2.9425  -27.7711 O   0  0  0  0  0  0
  -22.2245   -2.3128  -27.2336 H   0  0  0  0  0  0
  -20.9696   -2.4639  -28.0669 H   0  0  0  0  0  0
  -18.7440   -5.9425  -29.7711 O   0  0  0  0  0  0
  -19.6137   -6.3317  -29.8633 H   0  0  0  0  0  0
  -18.2654   -6.2383  -30.5455 H   0  0  0  0  0  0
  -18.7440   -5.9425  -29.7711 O   0  0  0  0  0  0
  -18.3548   -6.0347  -30.6408 H   0  0  0  0  0  0
  -18.4482   -6.7169  -29.2925 H   0  0  0  0  0  0
  -22.2440   -2.4425  -29.2711 O   0  0  0  0  0  0
  -22.1518   -1.5728  -28.8820 H   0  0  0  0  0  0
  -21.4696   -2.9211  -28.9753 H   0  0  0  0  0  0
  -22.2440   -2.4425  -29.2711 O   0  0  0  0  0  0
  -21.7635   -1.8128  -28.7336 H   0  0  0  0  0  0
  -23.0184   -1.9639  -29.5669 H   0  0  0  0  0  0
  -22.2440   -2.4425  -29.2711 O   0  0  0  0  0  0
  -21.3743   -2.0533  -29.1789 H   0  0  0  0  0  0
  -22.7226   -2.1467  -28.4967 H   0  0  0  0  0  0
  -18.7440   -6.4425  -32.7711 O   0  0  0  0  0  0
  -18.1143   -6.9800  -33.2516 H   0  0  0  0  0  0
  -18.2654   -6.1467  -31.9967 H   0  0  0  0  0  0
  -18.7440   -6.4425  -32.7711 O   0  0  0  0  0  0
  -18.6518   -7.3122  -32.3820 H   0  0  0  0  0  0
  -17.9696   -5.9639  -32.4753 H   0  0  0  0  0  0
  -18.7440   -6.4425  -32.7711 O   0  0  0  0  0  0
  -18.9840   -6.4425  -31.8445 H   0  0  0  0  0  0
  -17.7868   -6.4425  -32.7711 H   0  0  0  0  0  0
  -18.2440   -7.9425  -31.7711 O   0  0  0  0  0  0
  -18.7245   -7.3128  -32.3086 H   0  0  0  0  0  0
  -17.4696   -7.4639  -31.4753 H   0  0  0  0  0  0
  -18.2440   -7.9425  -31.7711 O   0  0  0  0  0  0
  -17.3174   -8.1825  -31.7711 H   0  0  0  0  0  0
  -18.2440   -6.9853  -31.7711 H   0  0  0  0  0  0
  -18.2440   -7.9425  -31.7711 O   0  0  0  0  0  0
  -17.8548   -7.8503  -32.6408 H   0  0  0  0  0  0
  -17.9482   -7.1681  -31.2925 H   0  0  0  0  0  0
  -18.2440   -7.9425  -31.7711 O   0  0  0  0  0  0
  -18.7245   -7.3128  -31.2336 H   0  0  0  0  0  0
  -17.4696   -7.4639  -32.0669 H   0  0  0  0  0  0
  -18.2440   -7.9425  -31.7711 O   0  0  0  0  0  0
  -17.3743   -7.5533  -31.6789 H   0  0  0  0  0  0
  -18.7226   -7.6467  -30.9967 H   0  0  0  0  0  0
  -18.2440   -9.4425  -22.2711 O   0  0  0  0  0  0
  -18.2440  -10.3691  -22.0311 H   0  0  0  0  0  0
  -18.2440   -9.4425  -23.2283 H   0  0  0  0  0  0
  -18.2440   -9.4425  -22.2711 O   0  0  0  0  0  0
  -18.6332   -9.5347  -23.1408 H   0  0  0  0  0  0
  -18.5398  -10.2169  -21.7925 H   0  0  0  0  0  0
  -18.2440   -9.4425  -22.2711 O   0  0  0  0  0  0
  -17.8548   -9.5347  -23.1408 H   0  0  0  0  0  0
  -17.9482  -10.2169  -21.7925 H   0  0  0  0  0  0
  -18.2440   -9.4425  -22.2711 O   0  0  0  0  0  0
  -17.3743   -9.8317  -22.3633 H   0  0  0  0  0  0
  -18.7226   -9.7383  -23.0455 H   0  0  0  0  0  0
  -22.7440   -6.9425  -25.2711 O   0  0  0  0  0  0
  -22.7440   -7.8691  -25.5111 H   0  0  0  0  0  0
  -22.7440   -6.9425  -24.3139 H   0  0  0  0  0  0
  -22.7440   -6.9425  -25.2711 O   0  0  0  0  0  0
  -22.7440   -6.0159  -25.5111 H   0  0  0  0  0  0
  -22.7440   -6.9425  -24.3139 H   0  0  0  0  0  0
  -22.7440   -6.9425  -25.2711 O   0  0  0  0  0  0
  -22.9840   -6.9425  -24.3445 H   0  0  0  0  0  0
  -21.7868   -6.9425  -25.2711 H   0  0  0  0  0  0
  -23.7440   -5.4425  -24.2711 O   0  0  0  0  0  0
  -23.2635   -6.0722  -23.7336 H   0  0  0  0  0  0
  -24.5184   -5.9211  -24.5669 H   0  0  0  0  0  0
  -23.7440   -5.4425  -24.2711 O   0  0  0  0  0  0
  -23.3548   -5.5347  -25.1408 H   0  0  0  0  0  0
  -23.4482   -6.2169  -23.7925 H   0  0  0  0  0  0
  -23.7440   -5.4425  -24.2711 O   0  0  0  0  0  0
  -24.2815   -4.9620  -23.6414 H   0  0  0  0  0  0
  -23.4482   -6.2169  -23.7925 H   0  0  0  0  0  0
  -23.7440   -5.4425  -24.2711 O   0  0  0  0  0  0
  -23.6518   -6.3122  -23.8820 H   0  0  0  0  0  0
  -22.9696   -4.9639  -23.9753 H   0  0  0  0  0  0
  -23.7440   -5.4425  -24.2711 O   0  0  0  0  0  0
  -23.3548   -5.5347  -23.4015 H   0  0  0  0  0  0
  -23.4482   -6.2169  -24.7497 H   0  0  0  0  0  0
  -31.2440    1.0575  -40.2711 O   0  0  0  0  0  0
  -31.2440    0.1309  -40.5111 H   0  0  0  0  0  0
  -31.2440    1.0575  -39.3139 H   0  0  0  0  0  0
  -31.2440    1.0575  -40.2711 O   0  0  0  0  0  0
  -31.2440    1.9841  -40.5111 H   0  0  0  0  0  0
  -31.2440    1.0575  -39.3139 H   0  0  0  0  0  0
  -31.2440   -9.9425  -25.7711 O   0  0  0  0  0  0
  -31.0040   -9.9425  -26.6977 H   0  0  0  0  0  0
  -32.2012   -9.9425  -25.7711 H   0  0  0  0  0  0
  -31.2440   -9.9425  -25.7711 O   0  0  0  0  0  0
  -31.2440   -9.0159  -25.5311 H   0  0  0  0  0  0
  -31.2440   -9.9425  -26.7283 H   0  0  0  0  0  0
  -31.2440   -9.9425  -25.7711 O   0  0  0  0  0  0
  -30.8548   -9.8503  -26.6408 H   0  0  0  0  0  0
  -30.9482   -9.1681  -25.2925 H   0  0  0  0  0  0
  -16.7440   -3.9425  -25.7711 O   0  0  0  0  0  0
  -15.8174   -4.1825  -25.7711 H   0  0  0  0  0  0
  -16.7440   -2.9853  -25.7711 H   0  0  0  0  0  0
  -16.7440   -3.9425  -25.7711 O   0  0  0  0  0  0
  -16.6518   -3.0728  -25.3820 H   0  0  0  0  0  0
  -15.9696   -4.4211  -25.4753 H   0  0  0  0  0  0
  -27.2440   -8.4425  -39.2711 O   0  0  0  0  0  0
  -26.7635   -7.8128  -38.7336 H   0  0  0  0  0  0
  -28.0184   -7.9639  -39.5669 H   0  0  0  0  0  0
  -27.2440   -8.4425  -39.2711 O   0  0  0  0  0  0
  -27.1518   -7.5728  -38.8820 H   0  0  0  0  0  0
  -26.4696   -8.9211  -38.9753 H   0  0  0  0  0  0
  -27.2440   -8.4425  -39.2711 O   0  0  0  0  0  0
  -28.1137   -8.0533  -39.1789 H   0  0  0  0  0  0
  -26.7654   -8.1467  -38.4967 H   0  0  0  0  0  0
  -29.7440   -6.9425  -19.2711 O   0  0  0  0  0  0
  -29.8362   -6.0728  -19.6603 H   0  0  0  0  0  0
  -30.5184   -7.4211  -19.5669 H   0  0  0  0  0  0
  -29.7440   -6.9425  -19.2711 O   0  0  0  0  0  0
  -30.1332   -6.8503  -18.4015 H   0  0  0  0  0  0
  -30.0398   -6.1681  -19.7497 H   0  0  0  0  0  0
  -29.7440   -6.9425  -19.2711 O   0  0  0  0  0  0
  -29.2635   -6.3128  -18.7336 H   0  0  0  0  0  0
  -30.5184   -6.4639  -19.5669 H   0  0  0  0  0  0
  -29.7440   -6.9425  -19.2711 O   0  0  0  0  0  0
  -30.6137   -6.5533  -19.3633 H   0  0  0  0  0  0
  -29.2654   -6.6467  -20.0455 H   0  0  0  0  0  0
  -29.7440   -6.9425  -19.2711 O   0  0  0  0  0  0
  -30.3737   -6.4050  -19.7516 H   0  0  0  0  0  0
  -30.2226   -7.2383  -18.4967 H   0  0  0  0  0  0
  -16.2440   -9.4425  -39.2711 O   0  0  0  0  0  0
  -15.8548   -9.3503  -40.1408 H   0  0  0  0  0  0
  -15.9482   -8.6681  -38.7925 H   0  0  0  0  0  0
  -16.2440   -9.4425  -39.2711 O   0  0  0  0  0  0
  -16.7815   -9.9230  -38.6414 H   0  0  0  0  0  0
  -15.9482   -8.6681  -38.7925 H   0  0  0  0  0  0
  -16.2440   -9.4425  -39.2711 O   0  0  0  0  0  0
  -16.1518   -8.5728  -38.8820 H   0  0  0  0  0  0
  -15.4696   -9.9211  -38.9753 H   0  0  0  0  0  0
  -30.2440   -0.4425  -39.7711 O   0  0  0  0  0  0
  -30.8737    0.0950  -39.2906 H   0  0  0  0  0  0
  -30.7226   -0.7383  -40.5455 H   0  0  0  0  0  0
  -21.2440   -9.9425  -36.2711 O   0  0  0  0  0  0
  -21.7245   -9.3128  -35.7336 H   0  0  0  0  0  0
  -20.4696   -9.4639  -36.5669 H   0  0  0  0  0  0
  -21.2440   -9.9425  -36.2711 O   0  0  0  0  0  0
  -21.8737   -9.4050  -35.7906 H   0  0  0  0  0  0
  -21.7226  -10.2383  -37.0455 H   0  0  0  0  0  0
  -21.2440   -9.9425  -36.2711 O   0  0  0  0  0  0
  -20.7635   -9.3128  -36.8086 H   0  0  0  0  0  0
  -22.0184   -9.4639  -35.9753 H   0  0  0  0  0  0
  -21.2440   -9.9425  -36.2711 O   0  0  0  0  0  0
  -21.6332   -9.8503  -37.1408 H   0  0  0  0  0  0
  -21.5398   -9.1681  -35.7925 H   0  0  0  0  0  0
  -21.2440   -9.9425  -36.2711 O   0  0  0  0  0  0
  -21.3362  -10.8122  -35.8820 H   0  0  0  0  0  0
  -22.0184   -9.4639  -35.9753 H   0  0  0  0  0  0
  -20.7440   -9.4425  -34.2711 O   0  0  0  0  0  0
  -21.3737   -8.9050  -34.7516 H   0  0  0  0  0  0
  -21.2226   -9.7383  -33.4967 H   0  0  0  0  0  0
  -20.7440   -9.4425  -34.2711 O   0  0  0  0  0  0
  -20.8362  -10.3122  -34.6603 H   0  0  0  0  0  0
  -21.5184   -8.9639  -34.5669 H   0  0  0  0  0  0
  -20.7440   -9.4425  -34.2711 O   0  0  0  0  0  0
  -20.2635   -8.8128  -33.7336 H   0  0  0  0  0  0
  -21.5184   -8.9639  -34.5669 H   0  0  0  0  0  0
  -30.7440    2.5575  -39.7711 O   0  0  0  0  0  0
  -31.1332    2.4653  -40.6408 H   0  0  0  0  0  0
  -31.0398    1.7831  -39.2925 H   0  0  0  0  0  0
  -22.2440   -0.4425  -30.2711 O   0  0  0  0  0  0
  -22.2440   -1.3691  -30.5111 H   0  0  0  0  0  0
  -22.2440   -0.4425  -29.3139 H   0  0  0  0  0  0
  -25.2440   -4.4425  -19.7711 O   0  0  0  0  0  0
  -26.1706   -4.6825  -19.7711 H   0  0  0  0  0  0
  -25.2440   -3.4853  -19.7711 H   0  0  0  0  0  0
  -25.2440   -4.4425  -19.7711 O   0  0  0  0  0  0
  -25.2440   -3.5159  -20.0111 H   0  0  0  0  0  0
  -25.2440   -4.4425  -18.8139 H   0  0  0  0  0  0
  -25.2440   -4.4425  -19.7711 O   0  0  0  0  0  0
  -25.2440   -3.5159  -19.5311 H   0  0  0  0  0  0
  -25.2440   -4.4425  -20.7283 H   0  0  0  0  0  0
  -31.2440   -7.4425  -25.7711 O   0  0  0  0  0  0
  -31.1518   -8.3122  -25.3820 H   0  0  0  0  0  0
  -30.4696   -6.9639  -25.4753 H   0  0  0  0  0  0
  -31.2440   -7.4425  -25.7711 O   0  0  0  0  0  0
  -30.3743   -7.0533  -25.6789 H   0  0  0  0  0  0
  -31.7226   -7.1467  -24.9967 H   0  0  0  0  0  0
  -31.2440   -7.4425  -25.7711 O   0  0  0  0  0  0
  -31.7815   -7.9230  -25.1414 H   0  0  0  0  0  0
  -30.9482   -6.6681  -25.2925 H   0  0  0  0  0  0
  -31.2440   -7.4425  -25.7711 O   0  0  0  0  0  0
  -31.7815   -6.9620  -25.1414 H   0  0  0  0  0  0
  -30.9482   -8.2169  -25.2925 H   0  0  0  0  0  0
  -31.2440   -7.4425  -25.7711 O   0  0  0  0  0  0
  -30.3743   -7.8317  -25.6789 H   0  0  0  0  0  0
  -31.7226   -7.7383  -24.9967 H   0  0  0  0  0  0
  -31.2440   -7.4425  -25.7711 O   0  0  0  0  0  0
  -30.7065   -6.9620  -25.1414 H   0  0  0  0  0  0
  -31.5398   -8.2169  -25.2925 H   0  0  0  0  0  0
  -31.2440   -7.4425  -25.7711 O   0  0  0  0  0  0
  -31.1518   -6.5728  -25.3820 H   0  0  0  0  0  0
  -30.4696   -7.9211  -25.4753 H   0  0  0  0  0  0
  -30.2440   -7.4425  -20.7711 O   0  0  0  0  0  0
  -30.3362   -6.5728  -20.3820 H   0  0  0  0  0  0
  -31.0184   -7.9211  -20.4753 H   0  0  0  0  0  0
  -30.2440   -7.4425  -20.7711 O   0  0  0  0  0  0
  -30.7245   -6.8128  -20.2336 H   0  0  0  0  0  0
  -29.4696   -6.9639  -21.0669 H   0  0  0  0  0  0
  -30.2440   -7.4425  -20.7711 O   0  0  0  0  0  0
  -29.7065   -7.9230  -20.1414 H   0  0  0  0  0  0
  -30.5398   -6.6681  -20.2925 H   0  0  0  0  0  0
  -24.2440   -3.4425  -21.2711 O   0  0  0  0  0  0
  -24.3362   -4.3122  -20.8820 H   0  0  0  0  0  0
  -25.0184   -2.9639  -20.9753 H   0  0  0  0  0  0
  -24.2440   -3.4425  -21.2711 O   0  0  0  0  0  0
  -24.8737   -2.9050  -20.7906 H   0  0  0  0  0  0
  -24.7226   -3.7383  -22.0455 H   0  0  0  0  0  0
  -24.2440   -3.4425  -21.2711 O   0  0  0  0  0  0
  -24.8737   -3.9800  -21.7516 H   0  0  0  0  0  0
  -24.7226   -3.1467  -20.4967 H   0  0  0  0  0  0
  -25.2440   -3.4425  -21.7711 O   0  0  0  0  0  0
  -24.7065   -3.9230  -21.1414 H   0  0  0  0  0  0
  -25.5398   -2.6681  -21.2925 H   0  0  0  0  0  0
  -25.2440   -3.4425  -21.7711 O   0  0  0  0  0  0
  -24.3743   -3.0533  -21.6789 H   0  0  0  0  0  0
  -25.7226   -3.1467  -20.9967 H   0  0  0  0  0  0
  -25.2440   -3.4425  -21.7711 O   0  0  0  0  0  0
  -25.7815   -2.9620  -21.1414 H   0  0  0  0  0  0
  -24.9482   -4.2169  -21.2925 H   0  0  0  0  0  0
  -25.2440   -3.4425  -21.7711 O   0  0  0  0  0  0
  -25.6332   -3.3503  -20.9015 H   0  0  0  0  0  0
  -25.5398   -2.6681  -22.2497 H   0  0  0  0  0  0
  -25.2440   -3.4425  -21.7711 O   0  0  0  0  0  0
  -25.3362   -2.5728  -21.3820 H   0  0  0  0  0  0
  -26.0184   -3.9211  -21.4753 H   0  0  0  0  0  0
  1  2  1  0  0  0
  1  3  1  0  0  0
  4  5  1  0  0  0
  4  6  1  0  0  0
  7  8  1  0  0  0
  7  9  1  0  0  0
 10 11  1  0  0  0
 10 12  1  0  0  0
 13 14  1  0  0  0
 13 15  1  0  0  0
 16 17  1  0  0  0
 16 18  1  0  0  0
 19 20  1  0  0  0
 19 21  1  0  0  0
 22 23  1  0  0  0
 22 24  1  0  0  0
 25 26  1  0  0  0
 25 27  1  0  0  0
 28 29  1  0  0  0
 28 30  1  0  0  0
 31 32  1  0  0  0
 31 33  1  0  0  0
 34 35  1  0  0  0
 34 36  1  0  0  0
 37 38  1  0  0  0
 37 39  1  0  0  0
 40 41  1  0  0  0
 40 42  1  0  0  0
 43 44  1  0  0  0
 43 45  1  0  0  0
 46 47  1  0  0  0
 46 48  1  0  0  0
 49 50  1  0  0  0
 49 51  1  0  0  0
 52 53  1  0  0  0
 52 54  1  0  0  0
 55 56  1  0  0  0
 55 57  1  0  0  0
 58 59  1  0  0  0
 58 60  1  0  0  0
 61 62  1  0  0  0
 61 63  1  0  0  0
 64 65  1  0  0  0
 64 66  1  0  0  0
 67 68  1  0  0  0
 67 69  1  0  0  0
 70 71  1  0  0  0
 70 72  1  0  0  0
 73 74  1  0  0  0
 73 75  1  0  0  0
 76 77  1  0  0  0
 76 78  1  0  0  0
 79 80  1  0  0  0
 79 81  1  0  0  0
 82 83  1  0  0  0
 82 84  1  0  0  0
 85 86  1  0  0  0
 85 87  1  0  0  0
 88 89  1  0  0  0
 88 90  1  0  0  0
 91 92  1  0  0  0
 91 93  1  0  0  0
 94 95  1  0  0  0
 94 96  1  0  0  0
 97 98  1  0  0  0
 97 99  1  0  0  0
100101  1  0  0  0
100102  1  0  0  0
103104  1  0  0  0
103105  1  0  0  0
106107  1  0  0  0
106108  1  0  0  0
109110  1  0  0  0
109111  1  0  0  0
112113  1  0  0  0
112114  1  0  0  0
115116  1  0  0  0
115117  1  0  0  0
118119  1  0  0  0
118120  1  0  0  0
121122  1  0  0  0
121123  1  0  0  0
124125  1  0  0  0
124126  1  0  0  0
127128  1  0  0  0
127129  1  0  0  0
130131  1  0  0  0
130132  1  0  0  0
133134  1  0  0  0
133135  1  0  0  0
136137  1  0  0  0
136138  1  0  0  0
139140  1  0  0  0
139141  1  0  0  0
142143  1  0  0  0
142144  1  0  0  0
145146  1  0  0  0
145147  1  0  0  0
148149  1  0  0  0
148150  1  0  0  0
151152  1  0  0  0
151153  1  0  0  0
154155  1  0  0  0
154156  1  0  0  0
157158  1  0  0  0
157159  1  0  0  0
160161  1  0  0  0
160162  1  0  0  0
163164  1  0  0  0
163165  1  0  0  0
166167  1  0  0  0
166168  1  0  0  0
169170  1  0  0  0
169171  1  0  0  0
172173  1  0  0  0
172174  1  0  0  0
175176  1  0  0  0
175177  1  0  0  0
178179  1  0  0  0
178180  1  0  0  0
181182  1  0  0  0
181183  1  0  0  0
184185  1  0  0  0
184186  1  0  0  0
187188  1  0  0  0
187189  1  0  0  0
190191  1  0  0  0
190192  1  0  0  0
193194  1  0  0  0
193195  1  0  0  0
196197  1  0  0  0
196198  1  0  0  0
199200  1  0  0  0
199201  1  0  0  0
202203  1  0  0  0
202204  1  0  0  0
205206  1  0  0  0
205207  1  0  0  0
208209  1  0  0  0
208210  1  0  0  0
211212  1  0  0  0
211213  1  0  0  0
214215  1  0  0  0
214216  1  0  0  0
217218  1  0  0  0
217219  1  0  0  0
220221  1  0  0  0
220222  1  0  0  0
223224  1  0  0  0
223225  1  0  0  0
226227  1  0  0  0
226228  1  0  0  0
229230  1  0  0  0
229231  1  0  0  0
232233  1  0  0  0
232234  1  0  0  0
235236  1  0  0  0
235237  1  0  0  0
238239  1  0  0  0
238240  1  0  0  0
241242  1  0  0  0
241243  1  0  0  0
244245  1  0  0  0
244246  1  0  0  0
247248  1  0  0  0
247249  1  0  0  0
250251  1  0  0  0
250252  1  0  0  0
253254  1  0  0  0
253255  1  0  0  0
256257  1  0  0  0
256258  1  0  0  0
259260  1  0  0  0
259261  1  0  0  0
262263  1  0  0  0
262264  1  0  0  0
265266  1  0  0  0
265267  1  0  0  0
268269  1  0  0  0
268270  1  0  0  0
271272  1  0  0  0
271273  1  0  0  0
274275  1  0  0  0
274276  1  0  0  0
277278  1  0  0  0
277279  1  0  0  0
280281  1  0  0  0
280282  1  0  0  0
283284  1  0  0  0
283285  1  0  0  0
286287  1  0  0  0
286288  1  0  0  0
289290  1  0  0  0
289291  1  0  0  0
292293  1  0  0  0
292294  1  0  0  0
295296  1  0  0  0
295297  1  0  0  0
298299  1  0  0  0
298300  1  0  0  0
301302  1  0  0  0
301303  1  0  0  0
304305  1  0  0  0
304306  1  0  0  0
307308  1  0  0  0
307309  1  0  0  0
310311  1  0  0  0
310312  1  0  0  0
313314  1  0  0  0
313315  1  0  0  0
316317  1  0  0  0
316318  1  0  0  0
319320  1  0  0  0
319321  1  0  0  0
322323  1  0  0  0
322324  1  0  0  0
325326  1  0  0  0
325327  1  0  0  0
328329  1  0  0  0
328330  1  0  0  0
331332  1  0  0  0
331333  1  0  0  0
334335  1  0  0  0
334336  1  0  0  0
337338  1  0  0  0
337339  1  0  0  0
340341  1  0  0  0
340342  1  0  0  0
343344  1  0  0  0
343345  1  0  0  0
346347  1  0  0  0
346348  1  0  0  0
349350  1  0  0  0
349351  1  0  0  0
352353  1  0  0  0
352354  1  0  0  0
355356  1  0  0  0
355357  1  0  0  0
358359  1  0  0  0
358360  1  0  0  0
361362  1  0  0  0
361363  1  0  0  0
364365  1  0  0  0
364366  1  0  0  0
367368  1  0  0  0
367369  1  0  0  0
370371  1  0  0  0
370372  1  0  0  0
373374  1  0  0  0
373375  1  0  0  0
376377  1  0  0  0
376378  1  0  0  0
379380  1  0  0  0
379381  1  0  0  0
382383  1  0  0  0
382384  1  0  0  0
385386  1  0  0  0
385387  1  0  0  0
388389  1  0  0  0
388390  1  0  0  0
391392  1  0  0  0
391393  1  0  0  0
394395  1  0  0  0
394396  1  0  0  0
M  END
> <s_m_entry_id>
947

> <s_m_entry_name>
SZMAP_Mpro_7E5X_chain_A.6_merged132

> <s_m_Source_Path>
C:\Users\ifige\Documents\lab_projects\Mpro\szmap\7E5X_chainA\SZMAP_7E5X_chain_A

> <s_m_Source_File>
SZMAP_Mpro_7E5X_chain_A.mae

> <i_m_Source_File_Index>
6

> <szmap_neut_diff_free_energy>
-8.079

> <szmap_vdw>
9.453

> <szmap_order>
0.345

> <szmap_probability>
0.165

> <s_m_subgroupid>
SZMAP_Mpro_7E5X_chain_A->SZMAP_Mpro_7E5X_chain_A1->Yellow_waters

> <s_m_subgroup_title>
SZMAP_Mpro_7E5X_chain_A->SZMAP_Mpro_7E5X_chain_A->Yellow_waters

> <b_m_subgroup_collapsed>
0

$$$$
