7e5x_chain_D_yellow_waters
                    3D
 Structure written by MMmdl.
468312  0  0  1  0            999 V2000
  -25.7440    2.5575  -40.2711 O   0  0  0  0  0  0
  -25.2635    3.1872  -39.7336 H   0  0  0  0  0  0
  -26.5184    3.0361  -40.5669 H   0  0  0  0  0  0
  -25.7440    2.5575  -40.2711 O   0  0  0  0  0  0
  -25.2635    3.1872  -40.8086 H   0  0  0  0  0  0
  -26.5184    3.0361  -39.9753 H   0  0  0  0  0  0
  -21.2440   -4.9425  -36.7711 O   0  0  0  0  0  0
  -20.8548   -5.0347  -35.9015 H   0  0  0  0  0  0
  -20.9482   -5.7169  -37.2497 H   0  0  0  0  0  0
  -27.2440   -4.4425  -20.2711 O   0  0  0  0  0  0
  -26.3174   -4.2025  -20.2711 H   0  0  0  0  0  0
  -27.2440   -5.3997  -20.2711 H   0  0  0  0  0  0
  -27.2440   -4.4425  -20.2711 O   0  0  0  0  0  0
  -26.8548   -4.5347  -21.1408 H   0  0  0  0  0  0
  -26.9482   -5.2169  -19.7925 H   0  0  0  0  0  0
  -15.2440  -10.9425  -28.2711 O   0  0  0  0  0  0
  -15.7245  -10.3128  -27.7336 H   0  0  0  0  0  0
  -14.4696  -10.4639  -28.5669 H   0  0  0  0  0  0
  -13.2440  -10.9425  -29.7711 O   0  0  0  0  0  0
  -13.6332  -10.8503  -30.6408 H   0  0  0  0  0  0
  -13.5398  -10.1681  -29.2925 H   0  0  0  0  0  0
  -13.7440   -6.4425  -25.7711 O   0  0  0  0  0  0
  -14.1332   -6.5347  -24.9015 H   0  0  0  0  0  0
  -14.0398   -7.2169  -26.2497 H   0  0  0  0  0  0
  -13.7440   -6.4425  -25.7711 O   0  0  0  0  0  0
  -13.7440   -7.3691  -26.0111 H   0  0  0  0  0  0
  -13.7440   -6.4425  -24.8139 H   0  0  0  0  0  0
  -17.7440   -8.9425  -26.7711 O   0  0  0  0  0  0
  -17.6518   -9.8122  -27.1603 H   0  0  0  0  0  0
  -16.9696   -8.4639  -27.0669 H   0  0  0  0  0  0
  -17.7440   -8.9425  -26.7711 O   0  0  0  0  0  0
  -17.1143   -8.4050  -27.2516 H   0  0  0  0  0  0
  -17.2654   -9.2383  -25.9967 H   0  0  0  0  0  0
  -19.7440   -4.9425  -29.7711 O   0  0  0  0  0  0
  -20.1332   -5.0347  -28.9015 H   0  0  0  0  0  0
  -20.0398   -5.7169  -30.2497 H   0  0  0  0  0  0
  -19.7440   -4.9425  -29.7711 O   0  0  0  0  0  0
  -20.6706   -4.7025  -29.7711 H   0  0  0  0  0  0
  -19.7440   -5.8997  -29.7711 H   0  0  0  0  0  0
  -19.7440   -4.9425  -29.7711 O   0  0  0  0  0  0
  -20.3737   -5.4800  -30.2516 H   0  0  0  0  0  0
  -20.2226   -4.6467  -28.9967 H   0  0  0  0  0  0
  -16.2440   -8.4425  -25.2711 O   0  0  0  0  0  0
  -15.8548   -8.3503  -26.1408 H   0  0  0  0  0  0
  -15.9482   -7.6681  -24.7925 H   0  0  0  0  0  0
  -16.2440   -8.4425  -25.2711 O   0  0  0  0  0  0
  -16.0040   -8.4425  -26.1977 H   0  0  0  0  0  0
  -17.2012   -8.4425  -25.2711 H   0  0  0  0  0  0
  -13.2440  -10.9425  -27.7711 O   0  0  0  0  0  0
  -13.7245  -10.3128  -28.3086 H   0  0  0  0  0  0
  -12.4696  -10.4639  -27.4753 H   0  0  0  0  0  0
  -13.2440  -10.9425  -27.7711 O   0  0  0  0  0  0
  -13.6332  -10.8503  -26.9015 H   0  0  0  0  0  0
  -13.5398  -10.1681  -28.2497 H   0  0  0  0  0  0
  -12.2440   -3.9425  -18.7711 O   0  0  0  0  0  0
  -11.6143   -4.4800  -18.2906 H   0  0  0  0  0  0
  -11.7654   -3.6467  -19.5455 H   0  0  0  0  0  0
  -12.2440   -3.9425  -18.7711 O   0  0  0  0  0  0
  -11.6143   -3.4050  -19.2516 H   0  0  0  0  0  0
  -11.7654   -4.2383  -17.9967 H   0  0  0  0  0  0
  -12.2440  -10.4425  -28.2711 O   0  0  0  0  0  0
  -11.7635   -9.8128  -27.7336 H   0  0  0  0  0  0
  -13.0184   -9.9639  -28.5669 H   0  0  0  0  0  0
  -26.2440    2.5575  -37.2711 O   0  0  0  0  0  0
  -27.1137    2.9467  -37.1789 H   0  0  0  0  0  0
  -25.7654    2.8533  -36.4967 H   0  0  0  0  0  0
  -26.2440    2.5575  -37.2711 O   0  0  0  0  0  0
  -25.7065    3.0380  -36.6414 H   0  0  0  0  0  0
  -26.5398    1.7831  -36.7925 H   0  0  0  0  0  0
  -17.7440   -7.4425  -26.7711 O   0  0  0  0  0  0
  -17.1143   -7.9800  -27.2516 H   0  0  0  0  0  0
  -17.2654   -7.1467  -25.9967 H   0  0  0  0  0  0
  -17.7440   -7.4425  -26.7711 O   0  0  0  0  0  0
  -17.6518   -6.5728  -27.1603 H   0  0  0  0  0  0
  -16.9696   -7.9211  -27.0669 H   0  0  0  0  0  0
  -30.7440   -6.4425  -22.2711 O   0  0  0  0  0  0
  -30.6518   -5.5728  -22.6603 H   0  0  0  0  0  0
  -29.9696   -6.9211  -22.5669 H   0  0  0  0  0  0
  -14.7440   -9.9425  -31.2711 O   0  0  0  0  0  0
  -14.3548   -9.8503  -30.4015 H   0  0  0  0  0  0
  -14.4482   -9.1681  -31.7497 H   0  0  0  0  0  0
  -22.2440   -4.9425  -22.7711 O   0  0  0  0  0  0
  -22.0040   -4.9425  -23.6977 H   0  0  0  0  0  0
  -23.2012   -4.9425  -22.7711 H   0  0  0  0  0  0
  -22.2440   -4.9425  -22.7711 O   0  0  0  0  0  0
  -22.3362   -5.8122  -23.1603 H   0  0  0  0  0  0
  -23.0184   -4.4639  -23.0669 H   0  0  0  0  0  0
  -22.2440   -4.9425  -22.7711 O   0  0  0  0  0  0
  -22.3362   -4.0728  -23.1603 H   0  0  0  0  0  0
  -23.0184   -5.4211  -23.0669 H   0  0  0  0  0  0
  -29.7440   -8.4425  -32.7711 O   0  0  0  0  0  0
  -30.6137   -8.8317  -32.6789 H   0  0  0  0  0  0
  -29.2654   -8.7383  -31.9967 H   0  0  0  0  0  0
  -29.7440   -8.4425  -32.7711 O   0  0  0  0  0  0
  -29.2635   -9.0722  -33.3086 H   0  0  0  0  0  0
  -30.5184   -8.9211  -32.4753 H   0  0  0  0  0  0
  -16.2440  -10.4425  -26.7711 O   0  0  0  0  0  0
  -16.1518   -9.5728  -27.1603 H   0  0  0  0  0  0
  -15.4696  -10.9211  -27.0669 H   0  0  0  0  0  0
  -16.2440  -10.4425  -26.7711 O   0  0  0  0  0  0
  -15.8548  -10.3503  -25.9015 H   0  0  0  0  0  0
  -15.9482   -9.6681  -27.2497 H   0  0  0  0  0  0
  -14.7440   -9.4425  -25.7711 O   0  0  0  0  0  0
  -15.2815   -8.9620  -26.4008 H   0  0  0  0  0  0
  -14.4482  -10.2169  -26.2497 H   0  0  0  0  0  0
  -14.7440   -9.4425  -25.7711 O   0  0  0  0  0  0
  -14.2065   -9.9230  -26.4008 H   0  0  0  0  0  0
  -15.0398   -8.6681  -26.2497 H   0  0  0  0  0  0
  -14.7440   -9.4425  -25.7711 O   0  0  0  0  0  0
  -13.8743   -9.0533  -25.8633 H   0  0  0  0  0  0
  -15.2226   -9.1467  -26.5455 H   0  0  0  0  0  0
  -17.2440   -9.4425  -22.2711 O   0  0  0  0  0  0
  -17.2440  -10.3691  -22.0311 H   0  0  0  0  0  0
  -17.2440   -9.4425  -23.2283 H   0  0  0  0  0  0
  -17.2440   -9.4425  -22.2711 O   0  0  0  0  0  0
  -16.8548   -9.5347  -23.1408 H   0  0  0  0  0  0
  -16.9482  -10.2169  -21.7925 H   0  0  0  0  0  0
  -21.2440   -3.4425  -22.7711 O   0  0  0  0  0  0
  -21.8737   -2.9050  -22.2906 H   0  0  0  0  0  0
  -21.7226   -3.7383  -23.5455 H   0  0  0  0  0  0
  -18.2440   -9.9425  -21.7711 O   0  0  0  0  0  0
  -18.7245  -10.5722  -22.3086 H   0  0  0  0  0  0
  -17.4696  -10.4211  -21.4753 H   0  0  0  0  0  0
  -18.2440   -9.9425  -21.7711 O   0  0  0  0  0  0
  -18.7245  -10.5722  -21.2336 H   0  0  0  0  0  0
  -17.4696  -10.4211  -22.0669 H   0  0  0  0  0  0
  -18.2440   -9.9425  -21.7711 O   0  0  0  0  0  0
  -17.8548  -10.0347  -22.6408 H   0  0  0  0  0  0
  -17.9482  -10.7169  -21.2925 H   0  0  0  0  0  0
  -22.7440  -10.9425  -36.2711 O   0  0  0  0  0  0
  -22.2635  -11.5722  -35.7336 H   0  0  0  0  0  0
  -23.5184  -11.4211  -36.5669 H   0  0  0  0  0  0
  -22.7440  -10.9425  -36.2711 O   0  0  0  0  0  0
  -22.2635  -11.5722  -36.8086 H   0  0  0  0  0  0
  -23.5184  -11.4211  -35.9753 H   0  0  0  0  0  0
  -22.7440  -10.9425  -36.2711 O   0  0  0  0  0  0
  -23.1332  -11.0347  -37.1408 H   0  0  0  0  0  0
  -23.0398  -11.7169  -35.7925 H   0  0  0  0  0  0
  -22.7440  -10.9425  -36.2711 O   0  0  0  0  0  0
  -23.2245  -11.5722  -35.7336 H   0  0  0  0  0  0
  -21.9696  -11.4211  -36.5669 H   0  0  0  0  0  0
  -22.7440  -10.9425  -36.2711 O   0  0  0  0  0  0
  -23.6137  -11.3317  -36.3633 H   0  0  0  0  0  0
  -22.2654  -11.2383  -37.0455 H   0  0  0  0  0  0
  -31.2440  -11.4425  -26.7711 O   0  0  0  0  0  0
  -30.8548  -11.5347  -27.6408 H   0  0  0  0  0  0
  -30.9482  -12.2169  -26.2925 H   0  0  0  0  0  0
  -31.2440  -11.4425  -26.7711 O   0  0  0  0  0  0
  -31.7245  -12.0722  -27.3086 H   0  0  0  0  0  0
  -30.4696  -11.9211  -26.4753 H   0  0  0  0  0  0
  -19.2440   -8.4425  -35.7711 O   0  0  0  0  0  0
  -18.8548   -8.3503  -34.9015 H   0  0  0  0  0  0
  -18.9482   -7.6681  -36.2497 H   0  0  0  0  0  0
  -19.2440   -8.4425  -35.7711 O   0  0  0  0  0  0
  -18.8548   -8.3503  -36.6408 H   0  0  0  0  0  0
  -18.9482   -7.6681  -35.2925 H   0  0  0  0  0  0
  -19.2440   -8.4425  -35.7711 O   0  0  0  0  0  0
  -18.6143   -8.9800  -35.2906 H   0  0  0  0  0  0
  -18.7654   -8.1467  -36.5455 H   0  0  0  0  0  0
  -19.2440   -8.4425  -35.7711 O   0  0  0  0  0  0
  -19.1518   -7.5728  -35.3820 H   0  0  0  0  0  0
  -18.4696   -8.9211  -35.4753 H   0  0  0  0  0  0
  -19.2440   -3.4425  -23.2711 O   0  0  0  0  0  0
  -18.7065   -2.9620  -23.9008 H   0  0  0  0  0  0
  -19.5398   -4.2169  -23.7497 H   0  0  0  0  0  0
  -12.2440    2.5575  -30.7711 O   0  0  0  0  0  0
  -12.1518    1.6878  -31.1603 H   0  0  0  0  0  0
  -11.4696    3.0361  -31.0669 H   0  0  0  0  0  0
  -12.2440    2.5575  -30.7711 O   0  0  0  0  0  0
  -11.7065    2.0770  -31.4008 H   0  0  0  0  0  0
  -12.5398    3.3319  -31.2497 H   0  0  0  0  0  0
  -12.2440   -8.4425  -27.2711 O   0  0  0  0  0  0
  -12.7815   -8.9230  -27.9008 H   0  0  0  0  0  0
  -11.9482   -7.6681  -27.7497 H   0  0  0  0  0  0
  -22.2440  -11.4425  -20.7711 O   0  0  0  0  0  0
  -22.7815  -10.9620  -20.1414 H   0  0  0  0  0  0
  -21.9482  -12.2169  -20.2925 H   0  0  0  0  0  0
  -22.2440  -11.4425  -20.7711 O   0  0  0  0  0  0
  -22.3362  -12.3122  -20.3820 H   0  0  0  0  0  0
  -23.0184  -10.9639  -20.4753 H   0  0  0  0  0  0
  -22.2440  -11.4425  -20.7711 O   0  0  0  0  0  0
  -22.0040  -11.4425  -19.8445 H   0  0  0  0  0  0
  -23.2012  -11.4425  -20.7711 H   0  0  0  0  0  0
  -22.2440  -11.4425  -20.7711 O   0  0  0  0  0  0
  -23.1137  -11.8317  -20.6789 H   0  0  0  0  0  0
  -21.7654  -11.7383  -19.9967 H   0  0  0  0  0  0
  -22.2440  -11.4425  -20.7711 O   0  0  0  0  0  0
  -23.1706  -11.2025  -20.7711 H   0  0  0  0  0  0
  -22.2440  -12.3997  -20.7711 H   0  0  0  0  0  0
  -12.2440   -6.4425  -36.2711 O   0  0  0  0  0  0
  -11.7065   -6.9230  -36.9008 H   0  0  0  0  0  0
  -12.5398   -5.6681  -36.7497 H   0  0  0  0  0  0
  -18.7440   -6.4425  -37.7711 O   0  0  0  0  0  0
  -18.5040   -6.4425  -36.8445 H   0  0  0  0  0  0
  -19.7012   -6.4425  -37.7711 H   0  0  0  0  0  0
  -18.7440   -6.4425  -37.7711 O   0  0  0  0  0  0
  -19.6706   -6.2025  -37.7711 H   0  0  0  0  0  0
  -18.7440   -7.3997  -37.7711 H   0  0  0  0  0  0
  -17.7440   -3.4425  -25.7711 O   0  0  0  0  0  0
  -17.3548   -3.3503  -24.9015 H   0  0  0  0  0  0
  -17.4482   -2.6681  -26.2497 H   0  0  0  0  0  0
  -17.7440   -3.4425  -25.7711 O   0  0  0  0  0  0
  -18.2245   -2.8128  -26.3086 H   0  0  0  0  0  0
  -16.9696   -2.9639  -25.4753 H   0  0  0  0  0  0
  -21.2440  -11.4425  -25.2711 O   0  0  0  0  0  0
  -20.7065  -10.9620  -25.9008 H   0  0  0  0  0  0
  -21.5398  -12.2169  -25.7497 H   0  0  0  0  0  0
  -21.2440  -11.4425  -25.2711 O   0  0  0  0  0  0
  -21.7815  -10.9620  -25.9008 H   0  0  0  0  0  0
  -20.9482  -12.2169  -25.7497 H   0  0  0  0  0  0
  -21.2440  -11.4425  -25.2711 O   0  0  0  0  0  0
  -22.1137  -11.8317  -25.3633 H   0  0  0  0  0  0
  -20.7654  -11.7383  -26.0455 H   0  0  0  0  0  0
  -21.2440  -11.4425  -25.2711 O   0  0  0  0  0  0
  -20.7065  -11.9230  -25.9008 H   0  0  0  0  0  0
  -21.5398  -10.6681  -25.7497 H   0  0  0  0  0  0
  -21.2440  -11.4425  -25.2711 O   0  0  0  0  0  0
  -20.3743  -11.8317  -25.3633 H   0  0  0  0  0  0
  -21.7226  -11.7383  -26.0455 H   0  0  0  0  0  0
  -21.2440  -11.4425  -25.2711 O   0  0  0  0  0  0
  -21.7815  -11.9230  -25.9008 H   0  0  0  0  0  0
  -20.9482  -10.6681  -25.7497 H   0  0  0  0  0  0
  -29.2440   -3.9425  -25.7711 O   0  0  0  0  0  0
  -28.7065   -4.4230  -26.4008 H   0  0  0  0  0  0
  -29.5398   -3.1681  -26.2497 H   0  0  0  0  0  0
  -30.2440    1.0575  -39.2711 O   0  0  0  0  0  0
  -30.6332    0.9653  -38.4015 H   0  0  0  0  0  0
  -30.5398    0.2831  -39.7497 H   0  0  0  0  0  0
  -29.7440    2.0575  -38.2711 O   0  0  0  0  0  0
  -30.3737    2.5950  -38.7516 H   0  0  0  0  0  0
  -30.2226    1.7617  -37.4967 H   0  0  0  0  0  0
  -29.7440    2.0575  -38.2711 O   0  0  0  0  0  0
  -30.1332    1.9653  -37.4015 H   0  0  0  0  0  0
  -30.0398    1.2831  -38.7497 H   0  0  0  0  0  0
  -29.7440    2.0575  -38.2711 O   0  0  0  0  0  0
  -30.6137    1.6683  -38.1789 H   0  0  0  0  0  0
  -29.2654    1.7617  -37.4967 H   0  0  0  0  0  0
  -29.7440    2.0575  -38.2711 O   0  0  0  0  0  0
  -30.3737    1.5200  -37.7906 H   0  0  0  0  0  0
  -30.2226    2.3533  -39.0455 H   0  0  0  0  0  0
  -21.7440   -2.9425  -28.2711 O   0  0  0  0  0  0
  -21.7440   -2.0159  -28.5111 H   0  0  0  0  0  0
  -21.7440   -2.9425  -27.3139 H   0  0  0  0  0  0
  -21.7440   -2.9425  -28.2711 O   0  0  0  0  0  0
  -21.2635   -2.3128  -27.7336 H   0  0  0  0  0  0
  -22.5184   -2.4639  -28.5669 H   0  0  0  0  0  0
  -21.7440   -2.9425  -28.2711 O   0  0  0  0  0  0
  -21.3548   -2.8503  -27.4015 H   0  0  0  0  0  0
  -21.4482   -2.1681  -28.7497 H   0  0  0  0  0  0
  -24.2440   -3.4425  -26.2711 O   0  0  0  0  0  0
  -24.3362   -2.5728  -26.6603 H   0  0  0  0  0  0
  -25.0184   -3.9211  -26.5669 H   0  0  0  0  0  0
  -24.2440   -3.4425  -26.2711 O   0  0  0  0  0  0
  -24.2440   -2.5159  -26.0311 H   0  0  0  0  0  0
  -24.2440   -3.4425  -27.2283 H   0  0  0  0  0  0
  -24.2440   -3.4425  -26.2711 O   0  0  0  0  0  0
  -24.2440   -2.5159  -26.5111 H   0  0  0  0  0  0
  -24.2440   -3.4425  -25.3139 H   0  0  0  0  0  0
  -24.2440   -3.4425  -26.2711 O   0  0  0  0  0  0
  -25.1706   -3.6825  -26.2711 H   0  0  0  0  0  0
  -24.2440   -2.4853  -26.2711 H   0  0  0  0  0  0
  -19.7440   -6.4425  -32.2711 O   0  0  0  0  0  0
  -18.8743   -6.0533  -32.3633 H   0  0  0  0  0  0
  -20.2226   -6.1467  -33.0455 H   0  0  0  0  0  0
  -19.7440   -6.4425  -32.2711 O   0  0  0  0  0  0
  -19.9840   -6.4425  -33.1977 H   0  0  0  0  0  0
  -18.7868   -6.4425  -32.2711 H   0  0  0  0  0  0
  -27.7440   -9.4425  -29.7711 O   0  0  0  0  0  0
  -28.3737   -8.9050  -29.2906 H   0  0  0  0  0  0
  -28.2226   -9.7383  -30.5455 H   0  0  0  0  0  0
  -27.7440   -9.4425  -29.7711 O   0  0  0  0  0  0
  -27.8362  -10.3122  -29.3820 H   0  0  0  0  0  0
  -28.5184   -8.9639  -29.4753 H   0  0  0  0  0  0
  -27.7440   -9.4425  -29.7711 O   0  0  0  0  0  0
  -28.6137   -9.0533  -29.6789 H   0  0  0  0  0  0
  -27.2654   -9.1467  -28.9967 H   0  0  0  0  0  0
  -27.7440   -9.4425  -29.7711 O   0  0  0  0  0  0
  -27.2635   -8.8128  -30.3086 H   0  0  0  0  0  0
  -28.5184   -8.9639  -29.4753 H   0  0  0  0  0  0
  -20.7440   -8.4425  -26.2711 O   0  0  0  0  0  0
  -20.3548   -8.3503  -25.4015 H   0  0  0  0  0  0
  -20.4482   -7.6681  -26.7497 H   0  0  0  0  0  0
  -20.7440   -8.4425  -26.2711 O   0  0  0  0  0  0
  -20.5040   -8.4425  -25.3445 H   0  0  0  0  0  0
  -21.7012   -8.4425  -26.2711 H   0  0  0  0  0  0
  -20.7440   -8.4425  -26.2711 O   0  0  0  0  0  0
  -20.3548   -8.5347  -25.4015 H   0  0  0  0  0  0
  -20.4482   -9.2169  -26.7497 H   0  0  0  0  0  0
  -25.2440   -9.4425  -38.2711 O   0  0  0  0  0  0
  -25.3362   -8.5728  -37.8820 H   0  0  0  0  0  0
  -26.0184   -9.9211  -37.9753 H   0  0  0  0  0  0
  -25.2440   -9.4425  -38.2711 O   0  0  0  0  0  0
  -25.2440   -8.5159  -38.0311 H   0  0  0  0  0  0
  -25.2440   -9.4425  -39.2283 H   0  0  0  0  0  0
  -20.7440   -6.9425  -25.7711 O   0  0  0  0  0  0
  -21.2815   -6.4620  -25.1414 H   0  0  0  0  0  0
  -20.4482   -7.7169  -25.2925 H   0  0  0  0  0  0
  -20.7440   -6.9425  -25.7711 O   0  0  0  0  0  0
  -20.6518   -7.8122  -25.3820 H   0  0  0  0  0  0
  -19.9696   -6.4639  -25.4753 H   0  0  0  0  0  0
  -20.7440   -6.9425  -25.7711 O   0  0  0  0  0  0
  -21.6137   -7.3317  -25.6789 H   0  0  0  0  0  0
  -20.2654   -7.2383  -24.9967 H   0  0  0  0  0  0
  -20.7440   -6.9425  -25.7711 O   0  0  0  0  0  0
  -20.2635   -7.5722  -25.2336 H   0  0  0  0  0  0
  -21.5184   -7.4211  -26.0669 H   0  0  0  0  0  0
  -20.7440   -6.9425  -25.7711 O   0  0  0  0  0  0
  -20.3548   -7.0347  -26.6408 H   0  0  0  0  0  0
  -20.4482   -7.7169  -25.2925 H   0  0  0  0  0  0
  -29.7440   -7.4425  -19.2711 O   0  0  0  0  0  0
  -30.1332   -7.3503  -18.4015 H   0  0  0  0  0  0
  -30.0398   -6.6681  -19.7497 H   0  0  0  0  0  0
  -29.7440   -7.4425  -19.2711 O   0  0  0  0  0  0
  -29.2635   -6.8128  -18.7336 H   0  0  0  0  0  0
  -30.5184   -6.9639  -19.5669 H   0  0  0  0  0  0
  -29.7440   -7.4425  -19.2711 O   0  0  0  0  0  0
  -29.8362   -6.5728  -19.6603 H   0  0  0  0  0  0
  -30.5184   -7.9211  -19.5669 H   0  0  0  0  0  0
  -29.7440   -7.4425  -19.2711 O   0  0  0  0  0  0
  -30.2245   -6.8128  -19.8086 H   0  0  0  0  0  0
  -28.9696   -6.9639  -18.9753 H   0  0  0  0  0  0
  -20.7440   -5.4425  -32.7711 O   0  0  0  0  0  0
  -19.8743   -5.8317  -32.8633 H   0  0  0  0  0  0
  -21.2226   -5.7383  -33.5455 H   0  0  0  0  0  0
  -20.7440   -5.4425  -32.7711 O   0  0  0  0  0  0
  -21.1332   -5.5347  -33.6408 H   0  0  0  0  0  0
  -21.0398   -6.2169  -32.2925 H   0  0  0  0  0  0
  -20.7440   -5.4425  -32.7711 O   0  0  0  0  0  0
  -21.6137   -5.8317  -32.8633 H   0  0  0  0  0  0
  -20.2654   -5.7383  -33.5455 H   0  0  0  0  0  0
  -20.7440   -5.4425  -32.7711 O   0  0  0  0  0  0
  -20.2065   -4.9620  -33.4008 H   0  0  0  0  0  0
  -21.0398   -6.2169  -33.2497 H   0  0  0  0  0  0
  -20.7440   -5.4425  -32.7711 O   0  0  0  0  0  0
  -21.2245   -6.0722  -33.3086 H   0  0  0  0  0  0
  -19.9696   -5.9211  -32.4753 H   0  0  0  0  0  0
  -24.7440   -2.4425  -24.7711 O   0  0  0  0  0  0
  -25.2815   -2.9230  -25.4008 H   0  0  0  0  0  0
  -24.4482   -1.6681  -25.2497 H   0  0  0  0  0  0
  -24.7440   -2.4425  -24.7711 O   0  0  0  0  0  0
  -25.6137   -2.0533  -24.8633 H   0  0  0  0  0  0
  -24.2654   -2.1467  -25.5455 H   0  0  0  0  0  0
  -28.7440  -10.4425  -30.2711 O   0  0  0  0  0  0
  -29.1332  -10.3503  -31.1408 H   0  0  0  0  0  0
  -29.0398   -9.6681  -29.7925 H   0  0  0  0  0  0
  -28.7440  -10.4425  -30.2711 O   0  0  0  0  0  0
  -29.2245   -9.8128  -29.7336 H   0  0  0  0  0  0
  -27.9696   -9.9639  -30.5669 H   0  0  0  0  0  0
  -28.7440  -10.4425  -30.2711 O   0  0  0  0  0  0
  -28.8362   -9.5728  -29.8820 H   0  0  0  0  0  0
  -29.5184  -10.9211  -29.9753 H   0  0  0  0  0  0
  -28.7440  -10.4425  -30.2711 O   0  0  0  0  0  0
  -28.2065  -10.9230  -29.6414 H   0  0  0  0  0  0
  -29.0398   -9.6681  -29.7925 H   0  0  0  0  0  0
  -29.2440   -6.4425  -18.2711 O   0  0  0  0  0  0
  -29.8737   -6.9800  -17.7906 H   0  0  0  0  0  0
  -29.7226   -6.1467  -19.0455 H   0  0  0  0  0  0
  -29.2440   -6.4425  -18.2711 O   0  0  0  0  0  0
  -29.8737   -5.9050  -18.7516 H   0  0  0  0  0  0
  -29.7226   -6.7383  -17.4967 H   0  0  0  0  0  0
  -29.2440   -6.4425  -18.2711 O   0  0  0  0  0  0
  -29.6332   -6.3503  -19.1408 H   0  0  0  0  0  0
  -29.5398   -5.6681  -17.7925 H   0  0  0  0  0  0
  -29.2440   -6.4425  -18.2711 O   0  0  0  0  0  0
  -29.7815   -5.9620  -18.9008 H   0  0  0  0  0  0
  -28.9482   -7.2169  -18.7497 H   0  0  0  0  0  0
  -29.2440   -6.4425  -18.2711 O   0  0  0  0  0  0
  -30.1137   -6.0533  -18.3633 H   0  0  0  0  0  0
  -28.7654   -6.1467  -19.0455 H   0  0  0  0  0  0
  -24.2440   -3.4425  -21.2711 O   0  0  0  0  0  0
  -24.3362   -4.3122  -20.8820 H   0  0  0  0  0  0
  -25.0184   -2.9639  -20.9753 H   0  0  0  0  0  0
  -24.2440   -3.4425  -21.2711 O   0  0  0  0  0  0
  -24.6332   -3.3503  -20.4015 H   0  0  0  0  0  0
  -24.5398   -2.6681  -21.7497 H   0  0  0  0  0  0
  -24.2440   -3.4425  -21.2711 O   0  0  0  0  0  0
  -24.8737   -3.9800  -21.7516 H   0  0  0  0  0  0
  -24.7226   -3.1467  -20.4967 H   0  0  0  0  0  0
  -24.2440   -3.4425  -21.2711 O   0  0  0  0  0  0
  -24.8737   -2.9050  -20.7906 H   0  0  0  0  0  0
  -24.7226   -3.7383  -22.0455 H   0  0  0  0  0  0
  -18.7440   -7.4425  -33.2711 O   0  0  0  0  0  0
  -18.2635   -6.8128  -32.7336 H   0  0  0  0  0  0
  -19.5184   -6.9639  -33.5669 H   0  0  0  0  0  0
  -18.7440   -7.4425  -33.2711 O   0  0  0  0  0  0
  -18.6518   -6.5728  -32.8820 H   0  0  0  0  0  0
  -17.9696   -7.9211  -32.9753 H   0  0  0  0  0  0
  -18.7440   -7.4425  -33.2711 O   0  0  0  0  0  0
  -19.6137   -7.0533  -33.1789 H   0  0  0  0  0  0
  -18.2654   -7.1467  -32.4967 H   0  0  0  0  0  0
  -18.7440   -7.4425  -33.2711 O   0  0  0  0  0  0
  -19.2815   -7.9230  -32.6414 H   0  0  0  0  0  0
  -18.4482   -6.6681  -32.7925 H   0  0  0  0  0  0
  -22.2440   -5.4425  -32.2711 O   0  0  0  0  0  0
  -22.7815   -4.9620  -32.9008 H   0  0  0  0  0  0
  -21.9482   -6.2169  -32.7497 H   0  0  0  0  0  0
  -22.2440   -5.4425  -32.2711 O   0  0  0  0  0  0
  -22.2440   -6.3691  -32.0311 H   0  0  0  0  0  0
  -22.2440   -5.4425  -33.2283 H   0  0  0  0  0  0
  -22.2440   -5.4425  -32.2711 O   0  0  0  0  0  0
  -23.1137   -5.8317  -32.3633 H   0  0  0  0  0  0
  -21.7654   -5.7383  -33.0455 H   0  0  0  0  0  0
  -22.2440   -5.4425  -32.2711 O   0  0  0  0  0  0
  -22.1518   -6.3122  -32.6603 H   0  0  0  0  0  0
  -21.4696   -4.9639  -32.5669 H   0  0  0  0  0  0
  -22.2440   -5.4425  -32.2711 O   0  0  0  0  0  0
  -21.7065   -5.9230  -32.9008 H   0  0  0  0  0  0
  -22.5398   -4.6681  -32.7497 H   0  0  0  0  0  0
  -21.7440   -6.4425  -31.7711 O   0  0  0  0  0  0
  -21.7440   -7.3691  -31.5311 H   0  0  0  0  0  0
  -21.7440   -6.4425  -32.7283 H   0  0  0  0  0  0
  -21.7440   -6.4425  -31.7711 O   0  0  0  0  0  0
  -21.9840   -6.4425  -32.6977 H   0  0  0  0  0  0
  -20.7868   -6.4425  -31.7711 H   0  0  0  0  0  0
  -21.7440   -6.4425  -31.7711 O   0  0  0  0  0  0
  -21.7440   -5.5159  -31.5311 H   0  0  0  0  0  0
  -21.7440   -6.4425  -32.7283 H   0  0  0  0  0  0
  -12.2440   -8.4425  -23.2711 O   0  0  0  0  0  0
  -13.1137   -8.0533  -23.1789 H   0  0  0  0  0  0
  -11.7654   -8.1467  -22.4967 H   0  0  0  0  0  0
  -12.2440   -8.4425  -23.2711 O   0  0  0  0  0  0
  -11.7635   -7.8128  -23.8086 H   0  0  0  0  0  0
  -13.0184   -7.9639  -22.9753 H   0  0  0  0  0  0
  -12.2440   -8.4425  -23.2711 O   0  0  0  0  0  0
  -12.8737   -7.9050  -22.7906 H   0  0  0  0  0  0
  -12.7226   -8.7383  -24.0455 H   0  0  0  0  0  0
  -12.2440   -8.4425  -23.2711 O   0  0  0  0  0  0
  -12.3362   -9.3122  -22.8820 H   0  0  0  0  0  0
  -13.0184   -7.9639  -22.9753 H   0  0  0  0  0  0
  -31.2440  -10.9425  -33.2711 O   0  0  0  0  0  0
  -30.7065  -11.4230  -32.6414 H   0  0  0  0  0  0
  -31.5398  -10.1681  -32.7925 H   0  0  0  0  0  0
  -31.2440  -10.9425  -33.2711 O   0  0  0  0  0  0
  -31.6332  -10.8503  -34.1408 H   0  0  0  0  0  0
  -31.5398  -10.1681  -32.7925 H   0  0  0  0  0  0
  -31.2440  -10.9425  -33.2711 O   0  0  0  0  0  0
  -31.3362  -10.0728  -32.8820 H   0  0  0  0  0  0
  -32.0184  -11.4211  -32.9753 H   0  0  0  0  0  0
  -31.2440  -10.9425  -33.2711 O   0  0  0  0  0  0
  -31.7245  -10.3128  -32.7336 H   0  0  0  0  0  0
  -30.4696  -10.4639  -33.5669 H   0  0  0  0  0  0
  -18.7440   -7.9425  -31.7711 O   0  0  0  0  0  0
  -18.3548   -7.8503  -30.9015 H   0  0  0  0  0  0
  -18.4482   -7.1681  -32.2497 H   0  0  0  0  0  0
  -18.7440   -7.9425  -31.7711 O   0  0  0  0  0  0
  -17.8174   -8.1825  -31.7711 H   0  0  0  0  0  0
  -18.7440   -6.9853  -31.7711 H   0  0  0  0  0  0
  -18.7440   -7.9425  -31.7711 O   0  0  0  0  0  0
  -19.2245   -7.3128  -31.2336 H   0  0  0  0  0  0
  -17.9696   -7.4639  -32.0669 H   0  0  0  0  0  0
  -18.7440   -7.9425  -31.7711 O   0  0  0  0  0  0
  -18.6518   -7.0728  -32.1603 H   0  0  0  0  0  0
  -17.9696   -8.4211  -32.0669 H   0  0  0  0  0  0
  -19.2440   -8.4425  -18.2711 O   0  0  0  0  0  0
  -19.2440   -7.5159  -18.5111 H   0  0  0  0  0  0
  -19.2440   -8.4425  -17.3139 H   0  0  0  0  0  0
  -19.2440   -8.4425  -18.2711 O   0  0  0  0  0  0
  -20.1706   -8.6825  -18.2711 H   0  0  0  0  0  0
  -19.2440   -7.4853  -18.2711 H   0  0  0  0  0  0
  -19.2440   -8.4425  -18.2711 O   0  0  0  0  0  0
  -19.3362   -7.5728  -18.6603 H   0  0  0  0  0  0
  -20.0184   -8.9211  -18.5669 H   0  0  0  0  0  0
  -19.2440   -8.4425  -18.2711 O   0  0  0  0  0  0
  -19.7245   -7.8128  -18.8086 H   0  0  0  0  0  0
  -18.4696   -7.9639  -17.9753 H   0  0  0  0  0  0
  -16.7440   -7.9425  -39.7711 O   0  0  0  0  0  0
  -16.3548   -7.8503  -40.6408 H   0  0  0  0  0  0
  -16.4482   -7.1681  -39.2925 H   0  0  0  0  0  0
  1  2  1  0  0  0
  1  3  1  0  0  0
  4  5  1  0  0  0
  4  6  1  0  0  0
  7  8  1  0  0  0
  7  9  1  0  0  0
 10 11  1  0  0  0
 10 12  1  0  0  0
 13 14  1  0  0  0
 13 15  1  0  0  0
 16 17  1  0  0  0
 16 18  1  0  0  0
 19 20  1  0  0  0
 19 21  1  0  0  0
 22 23  1  0  0  0
 22 24  1  0  0  0
 25 26  1  0  0  0
 25 27  1  0  0  0
 28 29  1  0  0  0
 28 30  1  0  0  0
 31 32  1  0  0  0
 31 33  1  0  0  0
 34 35  1  0  0  0
 34 36  1  0  0  0
 37 38  1  0  0  0
 37 39  1  0  0  0
 40 41  1  0  0  0
 40 42  1  0  0  0
 43 44  1  0  0  0
 43 45  1  0  0  0
 46 47  1  0  0  0
 46 48  1  0  0  0
 49 50  1  0  0  0
 49 51  1  0  0  0
 52 53  1  0  0  0
 52 54  1  0  0  0
 55 56  1  0  0  0
 55 57  1  0  0  0
 58 59  1  0  0  0
 58 60  1  0  0  0
 61 62  1  0  0  0
 61 63  1  0  0  0
 64 65  1  0  0  0
 64 66  1  0  0  0
 67 68  1  0  0  0
 67 69  1  0  0  0
 70 71  1  0  0  0
 70 72  1  0  0  0
 73 74  1  0  0  0
 73 75  1  0  0  0
 76 77  1  0  0  0
 76 78  1  0  0  0
 79 80  1  0  0  0
 79 81  1  0  0  0
 82 83  1  0  0  0
 82 84  1  0  0  0
 85 86  1  0  0  0
 85 87  1  0  0  0
 88 89  1  0  0  0
 88 90  1  0  0  0
 91 92  1  0  0  0
 91 93  1  0  0  0
 94 95  1  0  0  0
 94 96  1  0  0  0
 97 98  1  0  0  0
 97 99  1  0  0  0
100101  1  0  0  0
100102  1  0  0  0
103104  1  0  0  0
103105  1  0  0  0
106107  1  0  0  0
106108  1  0  0  0
109110  1  0  0  0
109111  1  0  0  0
112113  1  0  0  0
112114  1  0  0  0
115116  1  0  0  0
115117  1  0  0  0
118119  1  0  0  0
118120  1  0  0  0
121122  1  0  0  0
121123  1  0  0  0
124125  1  0  0  0
124126  1  0  0  0
127128  1  0  0  0
127129  1  0  0  0
130131  1  0  0  0
130132  1  0  0  0
133134  1  0  0  0
133135  1  0  0  0
136137  1  0  0  0
136138  1  0  0  0
139140  1  0  0  0
139141  1  0  0  0
142143  1  0  0  0
142144  1  0  0  0
145146  1  0  0  0
145147  1  0  0  0
148149  1  0  0  0
148150  1  0  0  0
151152  1  0  0  0
151153  1  0  0  0
154155  1  0  0  0
154156  1  0  0  0
157158  1  0  0  0
157159  1  0  0  0
160161  1  0  0  0
160162  1  0  0  0
163164  1  0  0  0
163165  1  0  0  0
166167  1  0  0  0
166168  1  0  0  0
169170  1  0  0  0
169171  1  0  0  0
172173  1  0  0  0
172174  1  0  0  0
175176  1  0  0  0
175177  1  0  0  0
178179  1  0  0  0
178180  1  0  0  0
181182  1  0  0  0
181183  1  0  0  0
184185  1  0  0  0
184186  1  0  0  0
187188  1  0  0  0
187189  1  0  0  0
190191  1  0  0  0
190192  1  0  0  0
193194  1  0  0  0
193195  1  0  0  0
196197  1  0  0  0
196198  1  0  0  0
199200  1  0  0  0
199201  1  0  0  0
202203  1  0  0  0
202204  1  0  0  0
205206  1  0  0  0
205207  1  0  0  0
208209  1  0  0  0
208210  1  0  0  0
211212  1  0  0  0
211213  1  0  0  0
214215  1  0  0  0
214216  1  0  0  0
217218  1  0  0  0
217219  1  0  0  0
220221  1  0  0  0
220222  1  0  0  0
223224  1  0  0  0
223225  1  0  0  0
226227  1  0  0  0
226228  1  0  0  0
229230  1  0  0  0
229231  1  0  0  0
232233  1  0  0  0
232234  1  0  0  0
235236  1  0  0  0
235237  1  0  0  0
238239  1  0  0  0
238240  1  0  0  0
241242  1  0  0  0
241243  1  0  0  0
244245  1  0  0  0
244246  1  0  0  0
247248  1  0  0  0
247249  1  0  0  0
250251  1  0  0  0
250252  1  0  0  0
253254  1  0  0  0
253255  1  0  0  0
256257  1  0  0  0
256258  1  0  0  0
259260  1  0  0  0
259261  1  0  0  0
262263  1  0  0  0
262264  1  0  0  0
265266  1  0  0  0
265267  1  0  0  0
268269  1  0  0  0
268270  1  0  0  0
271272  1  0  0  0
271273  1  0  0  0
274275  1  0  0  0
274276  1  0  0  0
277278  1  0  0  0
277279  1  0  0  0
280281  1  0  0  0
280282  1  0  0  0
283284  1  0  0  0
283285  1  0  0  0
286287  1  0  0  0
286288  1  0  0  0
289290  1  0  0  0
289291  1  0  0  0
292293  1  0  0  0
292294  1  0  0  0
295296  1  0  0  0
295297  1  0  0  0
298299  1  0  0  0
298300  1  0  0  0
301302  1  0  0  0
301303  1  0  0  0
304305  1  0  0  0
304306  1  0  0  0
307308  1  0  0  0
307309  1  0  0  0
310311  1  0  0  0
310312  1  0  0  0
313314  1  0  0  0
313315  1  0  0  0
316317  1  0  0  0
316318  1  0  0  0
319320  1  0  0  0
319321  1  0  0  0
322323  1  0  0  0
322324  1  0  0  0
325326  1  0  0  0
325327  1  0  0  0
328329  1  0  0  0
328330  1  0  0  0
331332  1  0  0  0
331333  1  0  0  0
334335  1  0  0  0
334336  1  0  0  0
337338  1  0  0  0
337339  1  0  0  0
340341  1  0  0  0
340342  1  0  0  0
343344  1  0  0  0
343345  1  0  0  0
346347  1  0  0  0
346348  1  0  0  0
349350  1  0  0  0
349351  1  0  0  0
352353  1  0  0  0
352354  1  0  0  0
355356  1  0  0  0
355357  1  0  0  0
358359  1  0  0  0
358360  1  0  0  0
361362  1  0  0  0
361363  1  0  0  0
364365  1  0  0  0
364366  1  0  0  0
367368  1  0  0  0
367369  1  0  0  0
370371  1  0  0  0
370372  1  0  0  0
373374  1  0  0  0
373375  1  0  0  0
376377  1  0  0  0
376378  1  0  0  0
379380  1  0  0  0
379381  1  0  0  0
382383  1  0  0  0
382384  1  0  0  0
385386  1  0  0  0
385387  1  0  0  0
388389  1  0  0  0
388390  1  0  0  0
391392  1  0  0  0
391393  1  0  0  0
394395  1  0  0  0
394396  1  0  0  0
397398  1  0  0  0
397399  1  0  0  0
400401  1  0  0  0
400402  1  0  0  0
403404  1  0  0  0
403405  1  0  0  0
406407  1  0  0  0
406408  1  0  0  0
409410  1  0  0  0
409411  1  0  0  0
412413  1  0  0  0
412414  1  0  0  0
415416  1  0  0  0
415417  1  0  0  0
418419  1  0  0  0
418420  1  0  0  0
421422  1  0  0  0
421423  1  0  0  0
424425  1  0  0  0
424426  1  0  0  0
427428  1  0  0  0
427429  1  0  0  0
430431  1  0  0  0
430432  1  0  0  0
433434  1  0  0  0
433435  1  0  0  0
436437  1  0  0  0
436438  1  0  0  0
439440  1  0  0  0
439441  1  0  0  0
442443  1  0  0  0
442444  1  0  0  0
445446  1  0  0  0
445447  1  0  0  0
448449  1  0  0  0
448450  1  0  0  0
451452  1  0  0  0
451453  1  0  0  0
454455  1  0  0  0
454456  1  0  0  0
457458  1  0  0  0
457459  1  0  0  0
460461  1  0  0  0
460462  1  0  0  0
463464  1  0  0  0
463465  1  0  0  0
466467  1  0  0  0
466468  1  0  0  0
M  END
> <s_m_entry_id>
5959

> <s_m_entry_name>
SZMAP_Mpro_7E5X_chain_D.5_merged156

> <s_m_Source_Path>
C:\Users\ifige\Documents\lab_projects\Mpro\szmap\7E5X_chainD\SZMAP_7E5X_chain_D

> <s_m_Source_File>
SZMAP_Mpro_7E5X_chain_D.mae

> <i_m_Source_File_Index>
5

> <szmap_neut_diff_free_energy>
-8.707

> <szmap_vdw>
4.492

> <szmap_order>
0.454

> <szmap_probability>
0.325

$$$$
