7jpy_yellow_waters
                    3D
 Structure written by MMmdl.
408272  0  0  1  0            999 V2000
  -28.7440   -7.9425  -40.2710 O   0  0  0  0  0  0
  -29.6137   -8.3317  -40.1788 H   0  0  0  0  0  0
  -28.2654   -8.2383  -39.4966 H   0  0  0  0  0  0
  -28.7440   -7.9425  -40.2710 O   0  0  0  0  0  0
  -28.2635   -8.5722  -40.8085 H   0  0  0  0  0  0
  -29.5184   -8.4211  -39.9752 H   0  0  0  0  0  0
  -13.2440   -7.4425  -24.7710 O   0  0  0  0  0  0
  -13.6332   -7.3503  -25.6407 H   0  0  0  0  0  0
  -13.5398   -6.6681  -24.2924 H   0  0  0  0  0  0
  -14.7440   -7.9425  -24.7710 O   0  0  0  0  0  0
  -14.3548   -7.8503  -25.6407 H   0  0  0  0  0  0
  -14.4482   -7.1681  -24.2924 H   0  0  0  0  0  0
  -21.7440   -4.9425  -23.2710 O   0  0  0  0  0  0
  -21.5040   -4.9425  -24.1976 H   0  0  0  0  0  0
  -22.7012   -4.9425  -23.2710 H   0  0  0  0  0  0
  -21.7440   -4.9425  -23.2710 O   0  0  0  0  0  0
  -22.6137   -5.3317  -23.3632 H   0  0  0  0  0  0
  -21.2654   -5.2383  -24.0454 H   0  0  0  0  0  0
  -21.7440   -4.9425  -23.2710 O   0  0  0  0  0  0
  -21.2065   -4.4620  -23.9007 H   0  0  0  0  0  0
  -22.0398   -5.7169  -23.7496 H   0  0  0  0  0  0
  -13.7440  -10.9425  -28.7710 O   0  0  0  0  0  0
  -13.7440  -10.0159  -28.5310 H   0  0  0  0  0  0
  -13.7440  -10.9425  -29.7282 H   0  0  0  0  0  0
  -13.7440  -10.9425  -28.7710 O   0  0  0  0  0  0
  -13.8362  -10.0728  -28.3818 H   0  0  0  0  0  0
  -14.5184  -11.4211  -28.4752 H   0  0  0  0  0  0
  -12.7440  -10.4425  -27.2710 O   0  0  0  0  0  0
  -12.2635   -9.8128  -26.7335 H   0  0  0  0  0  0
  -13.5184   -9.9639  -27.5668 H   0  0  0  0  0  0
  -12.7440  -10.4425  -27.2710 O   0  0  0  0  0  0
  -13.1332  -10.3503  -26.4013 H   0  0  0  0  0  0
  -13.0398   -9.6681  -27.7496 H   0  0  0  0  0  0
  -12.7440  -10.4425  -27.2710 O   0  0  0  0  0  0
  -13.2245   -9.8128  -27.8085 H   0  0  0  0  0  0
  -11.9696   -9.9639  -26.9752 H   0  0  0  0  0  0
  -25.2440   -6.9425  -22.7710 O   0  0  0  0  0  0
  -25.6332   -6.8503  -23.6407 H   0  0  0  0  0  0
  -25.5398   -6.1681  -22.2924 H   0  0  0  0  0  0
  -25.2440   -6.9425  -22.7710 O   0  0  0  0  0  0
  -25.8737   -6.4050  -22.2905 H   0  0  0  0  0  0
  -25.7226   -7.2383  -23.5454 H   0  0  0  0  0  0
  -25.2440   -6.9425  -22.7710 O   0  0  0  0  0  0
  -25.3362   -6.0728  -23.1602 H   0  0  0  0  0  0
  -26.0184   -7.4211  -23.0668 H   0  0  0  0  0  0
  -25.2440   -6.9425  -22.7710 O   0  0  0  0  0  0
  -26.1706   -7.1825  -22.7710 H   0  0  0  0  0  0
  -25.2440   -5.9853  -22.7710 H   0  0  0  0  0  0
  -25.2440   -6.9425  -22.7710 O   0  0  0  0  0  0
  -25.6332   -6.8503  -21.9013 H   0  0  0  0  0  0
  -25.5398   -6.1681  -23.2496 H   0  0  0  0  0  0
  -14.2440  -10.9425  -27.2710 O   0  0  0  0  0  0
  -14.1518  -10.0728  -27.6602 H   0  0  0  0  0  0
  -13.4696  -11.4211  -27.5668 H   0  0  0  0  0  0
  -14.2440  -10.9425  -27.2710 O   0  0  0  0  0  0
  -13.8548  -10.8503  -26.4013 H   0  0  0  0  0  0
  -13.9482  -10.1681  -27.7496 H   0  0  0  0  0  0
  -14.2440  -10.9425  -27.2710 O   0  0  0  0  0  0
  -14.7815  -11.4230  -27.9007 H   0  0  0  0  0  0
  -13.9482  -10.1681  -27.7496 H   0  0  0  0  0  0
  -16.2440   -6.4425  -25.2710 O   0  0  0  0  0  0
  -15.6143   -5.9050  -24.7905 H   0  0  0  0  0  0
  -15.7654   -6.7383  -26.0454 H   0  0  0  0  0  0
  -13.7440   -9.4425  -25.7710 O   0  0  0  0  0  0
  -13.7440   -8.5159  -25.5310 H   0  0  0  0  0  0
  -13.7440   -9.4425  -26.7282 H   0  0  0  0  0  0
  -20.2440   -4.4425  -35.2710 O   0  0  0  0  0  0
  -21.1706   -4.2025  -35.2710 H   0  0  0  0  0  0
  -20.2440   -5.3997  -35.2710 H   0  0  0  0  0  0
  -26.2440   -2.4425  -25.7710 O   0  0  0  0  0  0
  -25.7635   -3.0722  -25.2335 H   0  0  0  0  0  0
  -27.0184   -2.9211  -26.0668 H   0  0  0  0  0  0
  -26.2440   -2.4425  -25.7710 O   0  0  0  0  0  0
  -26.7245   -3.0722  -26.3085 H   0  0  0  0  0  0
  -25.4696   -2.9211  -25.4752 H   0  0  0  0  0  0
  -26.2440   -2.4425  -25.7710 O   0  0  0  0  0  0
  -27.1137   -2.8317  -25.6788 H   0  0  0  0  0  0
  -25.7654   -2.7383  -24.9966 H   0  0  0  0  0  0
  -22.2440   -2.4425  -28.7710 O   0  0  0  0  0  0
  -21.8548   -2.3503  -29.6407 H   0  0  0  0  0  0
  -21.9482   -1.6681  -28.2924 H   0  0  0  0  0  0
  -22.2440   -2.4425  -28.7710 O   0  0  0  0  0  0
  -22.7245   -1.8128  -29.3085 H   0  0  0  0  0  0
  -21.4696   -1.9639  -28.4752 H   0  0  0  0  0  0
  -26.2440    2.0575  -36.7710 O   0  0  0  0  0  0
  -25.8548    2.1497  -35.9013 H   0  0  0  0  0  0
  -25.9482    2.8319  -37.2496 H   0  0  0  0  0  0
  -26.2440    2.0575  -36.7710 O   0  0  0  0  0  0
  -25.6143    1.5200  -37.2515 H   0  0  0  0  0  0
  -25.7654    2.3533  -35.9966 H   0  0  0  0  0  0
  -23.2440   -7.4425  -19.2710 O   0  0  0  0  0  0
  -22.7065   -7.9230  -18.6413 H   0  0  0  0  0  0
  -23.5398   -6.6681  -18.7924 H   0  0  0  0  0  0
  -23.2440   -7.4425  -19.2710 O   0  0  0  0  0  0
  -22.7065   -6.9620  -18.6413 H   0  0  0  0  0  0
  -23.5398   -8.2169  -18.7924 H   0  0  0  0  0  0
  -23.2440   -7.4425  -19.2710 O   0  0  0  0  0  0
  -23.7815   -7.9230  -18.6413 H   0  0  0  0  0  0
  -22.9482   -6.6681  -18.7924 H   0  0  0  0  0  0
  -23.2440   -7.4425  -19.2710 O   0  0  0  0  0  0
  -23.7815   -6.9620  -18.6413 H   0  0  0  0  0  0
  -22.9482   -8.2169  -18.7924 H   0  0  0  0  0  0
  -23.2440   -7.4425  -19.2710 O   0  0  0  0  0  0
  -24.1137   -7.0533  -19.1788 H   0  0  0  0  0  0
  -22.7654   -7.1467  -18.4966 H   0  0  0  0  0  0
  -28.2440   -4.9425  -19.2710 O   0  0  0  0  0  0
  -29.1137   -5.3317  -19.1788 H   0  0  0  0  0  0
  -27.7654   -5.2383  -18.4966 H   0  0  0  0  0  0
  -28.2440   -4.9425  -19.2710 O   0  0  0  0  0  0
  -27.7635   -5.5722  -18.7335 H   0  0  0  0  0  0
  -29.0184   -5.4211  -19.5668 H   0  0  0  0  0  0
  -23.2440  -11.4425  -35.2710 O   0  0  0  0  0  0
  -22.7065  -10.9620  -35.9007 H   0  0  0  0  0  0
  -23.5398  -12.2169  -35.7496 H   0  0  0  0  0  0
  -23.2440  -11.4425  -35.2710 O   0  0  0  0  0  0
  -23.7815  -10.9620  -35.9007 H   0  0  0  0  0  0
  -22.9482  -12.2169  -35.7496 H   0  0  0  0  0  0
  -23.2440  -11.4425  -35.2710 O   0  0  0  0  0  0
  -22.3743  -11.8317  -35.3632 H   0  0  0  0  0  0
  -23.7226  -11.7383  -36.0454 H   0  0  0  0  0  0
  -23.2440  -11.4425  -35.2710 O   0  0  0  0  0  0
  -23.1518  -12.3122  -35.6602 H   0  0  0  0  0  0
  -22.4696  -10.9639  -35.5668 H   0  0  0  0  0  0
  -23.2440  -11.4425  -35.2710 O   0  0  0  0  0  0
  -23.4840  -11.4425  -36.1976 H   0  0  0  0  0  0
  -22.2868  -11.4425  -35.2710 H   0  0  0  0  0  0
  -12.2440   -5.4425  -39.2710 O   0  0  0  0  0  0
  -12.0040   -5.4425  -38.3444 H   0  0  0  0  0  0
  -13.2012   -5.4425  -39.2710 H   0  0  0  0  0  0
  -12.2440   -5.4425  -39.2710 O   0  0  0  0  0  0
  -13.1706   -5.2025  -39.2710 H   0  0  0  0  0  0
  -12.2440   -6.3997  -39.2710 H   0  0  0  0  0  0
  -30.7440  -11.4425  -30.2710 O   0  0  0  0  0  0
  -29.8743  -11.8317  -30.3632 H   0  0  0  0  0  0
  -31.2226  -11.7383  -31.0454 H   0  0  0  0  0  0
  -30.7440  -11.4425  -30.2710 O   0  0  0  0  0  0
  -31.6137  -11.8317  -30.3632 H   0  0  0  0  0  0
  -30.2654  -11.7383  -31.0454 H   0  0  0  0  0  0
  -15.7440  -10.4425  -28.2710 O   0  0  0  0  0  0
  -16.2245   -9.8128  -28.8085 H   0  0  0  0  0  0
  -14.9696   -9.9639  -27.9752 H   0  0  0  0  0  0
  -15.7440  -10.4425  -28.2710 O   0  0  0  0  0  0
  -16.2245   -9.8128  -27.7335 H   0  0  0  0  0  0
  -14.9696   -9.9639  -28.5668 H   0  0  0  0  0  0
  -15.7440  -10.4425  -28.2710 O   0  0  0  0  0  0
  -14.8743  -10.0533  -28.1788 H   0  0  0  0  0  0
  -16.2226  -10.1467  -27.4966 H   0  0  0  0  0  0
  -26.7440   -8.9425  -30.2710 O   0  0  0  0  0  0
  -27.6137   -8.5533  -30.3632 H   0  0  0  0  0  0
  -26.2654   -8.6467  -31.0454 H   0  0  0  0  0  0
  -26.7440   -4.4425  -19.7710 O   0  0  0  0  0  0
  -26.6518   -5.3122  -19.3818 H   0  0  0  0  0  0
  -25.9696   -3.9639  -19.4752 H   0  0  0  0  0  0
  -26.7440   -4.4425  -19.7710 O   0  0  0  0  0  0
  -26.6518   -5.3122  -20.1602 H   0  0  0  0  0  0
  -25.9696   -3.9639  -20.0668 H   0  0  0  0  0  0
  -15.7440   -7.4425  -38.7710 O   0  0  0  0  0  0
  -15.6518   -8.3122  -39.1602 H   0  0  0  0  0  0
  -14.9696   -6.9639  -39.0668 H   0  0  0  0  0  0
  -15.7440   -7.4425  -38.7710 O   0  0  0  0  0  0
  -14.8174   -7.2025  -38.7710 H   0  0  0  0  0  0
  -15.7440   -8.3997  -38.7710 H   0  0  0  0  0  0
  -28.2440   -2.9425  -26.2710 O   0  0  0  0  0  0
  -28.3362   -2.0728  -26.6602 H   0  0  0  0  0  0
  -29.0184   -3.4211  -26.5668 H   0  0  0  0  0  0
  -19.7440   -4.4425  -28.7710 O   0  0  0  0  0  0
  -19.8362   -5.3122  -28.3818 H   0  0  0  0  0  0
  -20.5184   -3.9639  -28.4752 H   0  0  0  0  0  0
  -19.7440   -4.4425  -28.7710 O   0  0  0  0  0  0
  -19.5040   -4.4425  -27.8444 H   0  0  0  0  0  0
  -20.7012   -4.4425  -28.7710 H   0  0  0  0  0  0
  -19.7440   -4.4425  -28.7710 O   0  0  0  0  0  0
  -20.3737   -4.9800  -29.2515 H   0  0  0  0  0  0
  -20.2226   -4.1467  -27.9966 H   0  0  0  0  0  0
  -19.7440   -4.4425  -28.7710 O   0  0  0  0  0  0
  -20.3737   -3.9050  -28.2905 H   0  0  0  0  0  0
  -20.2226   -4.7383  -29.5454 H   0  0  0  0  0  0
  -31.2440   -8.4425  -25.2710 O   0  0  0  0  0  0
  -30.7065   -7.9620  -24.6413 H   0  0  0  0  0  0
  -31.5398   -9.2169  -24.7924 H   0  0  0  0  0  0
  -31.2440   -8.4425  -25.2710 O   0  0  0  0  0  0
  -31.1518   -9.3122  -24.8818 H   0  0  0  0  0  0
  -30.4696   -7.9639  -24.9752 H   0  0  0  0  0  0
  -31.2440   -8.4425  -25.2710 O   0  0  0  0  0  0
  -31.7815   -7.9620  -24.6413 H   0  0  0  0  0  0
  -30.9482   -9.2169  -24.7924 H   0  0  0  0  0  0
  -31.2440   -8.4425  -25.2710 O   0  0  0  0  0  0
  -32.1137   -8.8317  -25.1788 H   0  0  0  0  0  0
  -30.7654   -8.7383  -24.4966 H   0  0  0  0  0  0
  -12.2440   -4.4425  -18.2710 O   0  0  0  0  0  0
  -11.8548   -4.3503  -17.4013 H   0  0  0  0  0  0
  -11.9482   -3.6681  -18.7496 H   0  0  0  0  0  0
  -12.2440   -4.4425  -18.2710 O   0  0  0  0  0  0
  -11.8548   -4.5347  -17.4013 H   0  0  0  0  0  0
  -11.9482   -5.2169  -18.7496 H   0  0  0  0  0  0
  -18.7440   -7.9425  -31.2710 O   0  0  0  0  0  0
  -19.2245   -7.3128  -30.7335 H   0  0  0  0  0  0
  -17.9696   -7.4639  -31.5668 H   0  0  0  0  0  0
  -18.7440   -7.9425  -31.2710 O   0  0  0  0  0  0
  -17.8174   -8.1825  -31.2710 H   0  0  0  0  0  0
  -18.7440   -6.9853  -31.2710 H   0  0  0  0  0  0
  -18.7440   -7.9425  -31.2710 O   0  0  0  0  0  0
  -18.3548   -7.8503  -30.4013 H   0  0  0  0  0  0
  -18.4482   -7.1681  -31.7496 H   0  0  0  0  0  0
  -25.2440   -8.9425  -29.2710 O   0  0  0  0  0  0
  -25.0040   -8.9425  -30.1976 H   0  0  0  0  0  0
  -26.2012   -8.9425  -29.2710 H   0  0  0  0  0  0
  -25.2440   -8.9425  -29.2710 O   0  0  0  0  0  0
  -25.2440   -8.0159  -29.0310 H   0  0  0  0  0  0
  -25.2440   -8.9425  -30.2282 H   0  0  0  0  0  0
  -25.2440   -8.9425  -29.2710 O   0  0  0  0  0  0
  -25.2440   -9.8691  -29.0310 H   0  0  0  0  0  0
  -25.2440   -8.9425  -30.2282 H   0  0  0  0  0  0
  -21.7440   -7.9425  -26.2710 O   0  0  0  0  0  0
  -21.7440   -7.0159  -26.5110 H   0  0  0  0  0  0
  -21.7440   -7.9425  -25.3138 H   0  0  0  0  0  0
  -21.7440   -7.9425  -26.2710 O   0  0  0  0  0  0
  -21.7440   -8.8691  -26.5110 H   0  0  0  0  0  0
  -21.7440   -7.9425  -25.3138 H   0  0  0  0  0  0
  -21.7440   -7.9425  -26.2710 O   0  0  0  0  0  0
  -21.5040   -7.9425  -25.3444 H   0  0  0  0  0  0
  -22.7012   -7.9425  -26.2710 H   0  0  0  0  0  0
  -30.7440    2.5575  -37.7710 O   0  0  0  0  0  0
  -30.7440    1.6309  -37.5310 H   0  0  0  0  0  0
  -30.7440    2.5575  -38.7282 H   0  0  0  0  0  0
  -30.7440    2.5575  -37.7710 O   0  0  0  0  0  0
  -29.8174    2.7975  -37.7710 H   0  0  0  0  0  0
  -30.7440    1.6003  -37.7710 H   0  0  0  0  0  0
  -17.2440   -3.4425  -25.7710 O   0  0  0  0  0  0
  -17.7245   -2.8128  -25.2335 H   0  0  0  0  0  0
  -16.4696   -2.9639  -26.0668 H   0  0  0  0  0  0
  -17.2440   -3.4425  -25.7710 O   0  0  0  0  0  0
  -17.7245   -2.8128  -26.3085 H   0  0  0  0  0  0
  -16.4696   -2.9639  -25.4752 H   0  0  0  0  0  0
  -17.2440   -3.4425  -25.7710 O   0  0  0  0  0  0
  -16.8548   -3.3503  -24.9013 H   0  0  0  0  0  0
  -16.9482   -2.6681  -26.2496 H   0  0  0  0  0  0
  -19.7440   -6.4425  -31.7710 O   0  0  0  0  0  0
  -18.8743   -6.0533  -31.6788 H   0  0  0  0  0  0
  -20.2226   -6.1467  -30.9966 H   0  0  0  0  0  0
  -19.7440   -6.4425  -31.7710 O   0  0  0  0  0  0
  -19.6518   -7.3122  -31.3818 H   0  0  0  0  0  0
  -18.9696   -5.9639  -31.4752 H   0  0  0  0  0  0
  -19.7440   -6.4425  -31.7710 O   0  0  0  0  0  0
  -19.9840   -6.4425  -30.8444 H   0  0  0  0  0  0
  -18.7868   -6.4425  -31.7710 H   0  0  0  0  0  0
  -19.7440   -6.4425  -31.7710 O   0  0  0  0  0  0
  -18.8174   -6.2025  -31.7710 H   0  0  0  0  0  0
  -19.7440   -7.3997  -31.7710 H   0  0  0  0  0  0
  -29.2440    0.5575  -38.7710 O   0  0  0  0  0  0
  -29.8737    1.0950  -39.2515 H   0  0  0  0  0  0
  -29.7226    0.2617  -37.9966 H   0  0  0  0  0  0
  -29.2440    0.5575  -38.7710 O   0  0  0  0  0  0
  -29.6332    0.4653  -37.9013 H   0  0  0  0  0  0
  -29.5398   -0.2169  -39.2496 H   0  0  0  0  0  0
  -29.2440    0.5575  -38.7710 O   0  0  0  0  0  0
  -29.7815    0.0770  -38.1413 H   0  0  0  0  0  0
  -28.9482    1.3319  -38.2924 H   0  0  0  0  0  0
  -29.2440    0.5575  -38.7710 O   0  0  0  0  0  0
  -29.0040    0.5575  -37.8444 H   0  0  0  0  0  0
  -30.2012    0.5575  -38.7710 H   0  0  0  0  0  0
  -21.7440   -9.9425  -39.7710 O   0  0  0  0  0  0
  -21.2635  -10.5722  -39.2335 H   0  0  0  0  0  0
  -22.5184  -10.4211  -40.0668 H   0  0  0  0  0  0
  -21.7440   -9.9425  -39.7710 O   0  0  0  0  0  0
  -22.6137  -10.3317  -39.6788 H   0  0  0  0  0  0
  -21.2654  -10.2383  -38.9966 H   0  0  0  0  0  0
  -21.7440   -9.9425  -39.7710 O   0  0  0  0  0  0
  -21.2635  -10.5722  -40.3085 H   0  0  0  0  0  0
  -22.5184  -10.4211  -39.4752 H   0  0  0  0  0  0
  -21.7440   -9.9425  -39.7710 O   0  0  0  0  0  0
  -22.1332  -10.0347  -40.6407 H   0  0  0  0  0  0
  -22.0398  -10.7169  -39.2924 H   0  0  0  0  0  0
  -21.7440   -9.9425  -39.7710 O   0  0  0  0  0  0
  -22.2245  -10.5722  -40.3085 H   0  0  0  0  0  0
  -20.9696  -10.4211  -39.4752 H   0  0  0  0  0  0
  -30.2440   -0.9425  -40.2710 O   0  0  0  0  0  0
  -30.2440   -1.8691  -40.5110 H   0  0  0  0  0  0
  -30.2440   -0.9425  -39.3138 H   0  0  0  0  0  0
  -30.2440   -0.9425  -40.2710 O   0  0  0  0  0  0
  -31.1706   -0.7025  -40.2710 H   0  0  0  0  0  0
  -30.2440   -1.8997  -40.2710 H   0  0  0  0  0  0
  -26.2440   -7.9425  -38.2710 O   0  0  0  0  0  0
  -27.1137   -7.5533  -38.1788 H   0  0  0  0  0  0
  -25.7654   -7.6467  -37.4966 H   0  0  0  0  0  0
  -19.2440   -3.4425  -23.2710 O   0  0  0  0  0  0
  -19.7815   -2.9620  -23.9007 H   0  0  0  0  0  0
  -18.9482   -4.2169  -23.7496 H   0  0  0  0  0  0
  -24.7440   -9.9425  -37.2710 O   0  0  0  0  0  0
  -24.6518   -9.0728  -36.8818 H   0  0  0  0  0  0
  -23.9696  -10.4211  -36.9752 H   0  0  0  0  0  0
  -24.7440   -9.9425  -37.2710 O   0  0  0  0  0  0
  -24.2635   -9.3128  -36.7335 H   0  0  0  0  0  0
  -25.5184   -9.4639  -37.5668 H   0  0  0  0  0  0
  -24.7440   -9.9425  -37.2710 O   0  0  0  0  0  0
  -24.7440   -9.0159  -37.0310 H   0  0  0  0  0  0
  -24.7440   -9.9425  -38.2282 H   0  0  0  0  0  0
  -24.7440   -7.4425  -29.7710 O   0  0  0  0  0  0
  -24.2065   -6.9620  -30.4007 H   0  0  0  0  0  0
  -25.0398   -8.2169  -30.2496 H   0  0  0  0  0  0
  -24.7440   -7.4425  -29.7710 O   0  0  0  0  0  0
  -23.8743   -7.8317  -29.8632 H   0  0  0  0  0  0
  -25.2226   -7.7383  -30.5454 H   0  0  0  0  0  0
  -24.7440   -7.4425  -29.7710 O   0  0  0  0  0  0
  -24.7440   -8.3691  -29.5310 H   0  0  0  0  0  0
  -24.7440   -7.4425  -30.7282 H   0  0  0  0  0  0
  -17.2440   -9.4425  -22.2710 O   0  0  0  0  0  0
  -16.3743   -9.8317  -22.3632 H   0  0  0  0  0  0
  -17.7226   -9.7383  -23.0454 H   0  0  0  0  0  0
  -17.2440   -9.4425  -22.2710 O   0  0  0  0  0  0
  -16.8548   -9.5347  -23.1407 H   0  0  0  0  0  0
  -16.9482  -10.2169  -21.7924 H   0  0  0  0  0  0
  -17.2440   -9.4425  -22.2710 O   0  0  0  0  0  0
  -17.2440  -10.3691  -22.0310 H   0  0  0  0  0  0
  -17.2440   -9.4425  -23.2282 H   0  0  0  0  0  0
  -17.2440   -9.4425  -22.2710 O   0  0  0  0  0  0
  -17.7245  -10.0722  -22.8085 H   0  0  0  0  0  0
  -16.4696   -9.9211  -21.9752 H   0  0  0  0  0  0
  -30.7440   -5.9425  -23.2710 O   0  0  0  0  0  0
  -29.8174   -6.1825  -23.2710 H   0  0  0  0  0  0
  -30.7440   -4.9853  -23.2710 H   0  0  0  0  0  0
  -25.7440   -9.4425  -37.7710 O   0  0  0  0  0  0
  -25.2635   -8.8128  -37.2335 H   0  0  0  0  0  0
  -26.5184   -8.9639  -38.0668 H   0  0  0  0  0  0
  -25.7440   -9.4425  -37.7710 O   0  0  0  0  0  0
  -25.6518   -8.5728  -37.3818 H   0  0  0  0  0  0
  -24.9696   -9.9211  -37.4752 H   0  0  0  0  0  0
  -29.7440   -6.9425  -18.2710 O   0  0  0  0  0  0
  -29.2065   -7.4230  -18.9007 H   0  0  0  0  0  0
  -30.0398   -6.1681  -18.7496 H   0  0  0  0  0  0
  -29.7440   -6.9425  -18.2710 O   0  0  0  0  0  0
  -30.1332   -6.8503  -17.4013 H   0  0  0  0  0  0
  -30.0398   -6.1681  -18.7496 H   0  0  0  0  0  0
  -29.7440   -6.9425  -18.2710 O   0  0  0  0  0  0
  -30.2245   -6.3128  -18.8085 H   0  0  0  0  0  0
  -28.9696   -6.4639  -17.9752 H   0  0  0  0  0  0
  -21.7440   -9.9425  -25.2710 O   0  0  0  0  0  0
  -21.6518   -9.0728  -24.8818 H   0  0  0  0  0  0
  -20.9696  -10.4211  -24.9752 H   0  0  0  0  0  0
  -21.7440   -9.9425  -25.2710 O   0  0  0  0  0  0
  -21.8362   -9.0728  -24.8818 H   0  0  0  0  0  0
  -22.5184  -10.4211  -24.9752 H   0  0  0  0  0  0
  -21.7440   -9.9425  -25.2710 O   0  0  0  0  0  0
  -22.2815  -10.4230  -24.6413 H   0  0  0  0  0  0
  -21.4482   -9.1681  -24.7924 H   0  0  0  0  0  0
  -21.7440   -9.9425  -25.2710 O   0  0  0  0  0  0
  -21.2065  -10.4230  -24.6413 H   0  0  0  0  0  0
  -22.0398   -9.1681  -24.7924 H   0  0  0  0  0  0
  -21.7440   -9.9425  -25.2710 O   0  0  0  0  0  0
  -21.7440   -9.0159  -25.0310 H   0  0  0  0  0  0
  -21.7440   -9.9425  -26.2282 H   0  0  0  0  0  0
  -24.2440   -3.4425  -21.2710 O   0  0  0  0  0  0
  -24.8737   -3.9800  -21.7515 H   0  0  0  0  0  0
  -24.7226   -3.1467  -20.4966 H   0  0  0  0  0  0
  -24.2440   -3.4425  -21.2710 O   0  0  0  0  0  0
  -24.8737   -2.9050  -20.7905 H   0  0  0  0  0  0
  -24.7226   -3.7383  -22.0454 H   0  0  0  0  0  0
  -24.2440   -3.4425  -21.2710 O   0  0  0  0  0  0
  -24.6332   -3.3503  -20.4013 H   0  0  0  0  0  0
  -24.5398   -2.6681  -21.7496 H   0  0  0  0  0  0
  -19.7440   -8.4425  -25.2710 O   0  0  0  0  0  0
  -19.8362   -9.3122  -24.8818 H   0  0  0  0  0  0
  -20.5184   -7.9639  -24.9752 H   0  0  0  0  0  0
  -19.7440   -8.4425  -25.2710 O   0  0  0  0  0  0
  -20.6137   -8.0533  -25.1788 H   0  0  0  0  0  0
  -19.2654   -8.1467  -24.4966 H   0  0  0  0  0  0
  -19.7440   -8.4425  -25.2710 O   0  0  0  0  0  0
  -19.2635   -7.8128  -25.8085 H   0  0  0  0  0  0
  -20.5184   -7.9639  -24.9752 H   0  0  0  0  0  0
  -19.7440   -8.4425  -25.2710 O   0  0  0  0  0  0
  -20.3737   -7.9050  -24.7905 H   0  0  0  0  0  0
  -20.2226   -8.7383  -26.0454 H   0  0  0  0  0  0
  -19.7440   -8.4425  -25.2710 O   0  0  0  0  0  0
  -20.3737   -8.9800  -25.7515 H   0  0  0  0  0  0
  -20.2226   -8.1467  -24.4966 H   0  0  0  0  0  0
  -20.2440   -9.4425  -25.2710 O   0  0  0  0  0  0
  -20.7245   -8.8128  -24.7335 H   0  0  0  0  0  0
  -19.4696   -8.9639  -25.5668 H   0  0  0  0  0  0
  -20.2440   -9.4425  -25.2710 O   0  0  0  0  0  0
  -19.7635   -8.8128  -25.8085 H   0  0  0  0  0  0
  -21.0184   -8.9639  -24.9752 H   0  0  0  0  0  0
  -20.2440   -9.4425  -25.2710 O   0  0  0  0  0  0
  -20.6332   -9.3503  -26.1407 H   0  0  0  0  0  0
  -20.5398   -8.6681  -24.7924 H   0  0  0  0  0  0
  -20.2440   -9.4425  -25.2710 O   0  0  0  0  0  0
  -20.3362   -8.5728  -24.8818 H   0  0  0  0  0  0
  -21.0184   -9.9211  -24.9752 H   0  0  0  0  0  0
  -20.2440   -9.4425  -25.2710 O   0  0  0  0  0  0
  -20.8737   -8.9050  -24.7905 H   0  0  0  0  0  0
  -20.7226   -9.7383  -26.0454 H   0  0  0  0  0  0
  -18.7440   -7.9425  -18.2710 O   0  0  0  0  0  0
  -18.8362   -7.0728  -18.6602 H   0  0  0  0  0  0
  -19.5184   -8.4211  -18.5668 H   0  0  0  0  0  0
  -18.7440   -7.9425  -18.2710 O   0  0  0  0  0  0
  -19.1332   -7.8503  -17.4013 H   0  0  0  0  0  0
  -19.0398   -7.1681  -18.7496 H   0  0  0  0  0  0
  -18.7440   -7.9425  -18.2710 O   0  0  0  0  0  0
  -18.2635   -7.3128  -17.7335 H   0  0  0  0  0  0
  -19.5184   -7.4639  -18.5668 H   0  0  0  0  0  0
  -25.7440  -11.4425  -30.7710 O   0  0  0  0  0  0
  -26.6706  -11.6825  -30.7710 H   0  0  0  0  0  0
  -25.7440  -10.4853  -30.7710 H   0  0  0  0  0  0
  -25.7440  -11.4425  -30.7710 O   0  0  0  0  0  0
  -25.7440  -10.5159  -31.0110 H   0  0  0  0  0  0
  -25.7440  -11.4425  -29.8138 H   0  0  0  0  0  0
  -25.7440  -11.4425  -30.7710 O   0  0  0  0  0  0
  -25.2635  -10.8128  -30.2335 H   0  0  0  0  0  0
  -26.5184  -10.9639  -31.0668 H   0  0  0  0  0  0
  1  2  1  0  0  0
  1  3  1  0  0  0
  4  5  1  0  0  0
  4  6  1  0  0  0
  7  8  1  0  0  0
  7  9  1  0  0  0
 10 11  1  0  0  0
 10 12  1  0  0  0
 13 14  1  0  0  0
 13 15  1  0  0  0
 16 17  1  0  0  0
 16 18  1  0  0  0
 19 20  1  0  0  0
 19 21  1  0  0  0
 22 23  1  0  0  0
 22 24  1  0  0  0
 25 26  1  0  0  0
 25 27  1  0  0  0
 28 29  1  0  0  0
 28 30  1  0  0  0
 31 32  1  0  0  0
 31 33  1  0  0  0
 34 35  1  0  0  0
 34 36  1  0  0  0
 37 38  1  0  0  0
 37 39  1  0  0  0
 40 41  1  0  0  0
 40 42  1  0  0  0
 43 44  1  0  0  0
 43 45  1  0  0  0
 46 47  1  0  0  0
 46 48  1  0  0  0
 49 50  1  0  0  0
 49 51  1  0  0  0
 52 53  1  0  0  0
 52 54  1  0  0  0
 55 56  1  0  0  0
 55 57  1  0  0  0
 58 59  1  0  0  0
 58 60  1  0  0  0
 61 62  1  0  0  0
 61 63  1  0  0  0
 64 65  1  0  0  0
 64 66  1  0  0  0
 67 68  1  0  0  0
 67 69  1  0  0  0
 70 71  1  0  0  0
 70 72  1  0  0  0
 73 74  1  0  0  0
 73 75  1  0  0  0
 76 77  1  0  0  0
 76 78  1  0  0  0
 79 80  1  0  0  0
 79 81  1  0  0  0
 82 83  1  0  0  0
 82 84  1  0  0  0
 85 86  1  0  0  0
 85 87  1  0  0  0
 88 89  1  0  0  0
 88 90  1  0  0  0
 91 92  1  0  0  0
 91 93  1  0  0  0
 94 95  1  0  0  0
 94 96  1  0  0  0
 97 98  1  0  0  0
 97 99  1  0  0  0
100101  1  0  0  0
100102  1  0  0  0
103104  1  0  0  0
103105  1  0  0  0
106107  1  0  0  0
106108  1  0  0  0
109110  1  0  0  0
109111  1  0  0  0
112113  1  0  0  0
112114  1  0  0  0
115116  1  0  0  0
115117  1  0  0  0
118119  1  0  0  0
118120  1  0  0  0
121122  1  0  0  0
121123  1  0  0  0
124125  1  0  0  0
124126  1  0  0  0
127128  1  0  0  0
127129  1  0  0  0
130131  1  0  0  0
130132  1  0  0  0
133134  1  0  0  0
133135  1  0  0  0
136137  1  0  0  0
136138  1  0  0  0
139140  1  0  0  0
139141  1  0  0  0
142143  1  0  0  0
142144  1  0  0  0
145146  1  0  0  0
145147  1  0  0  0
148149  1  0  0  0
148150  1  0  0  0
151152  1  0  0  0
151153  1  0  0  0
154155  1  0  0  0
154156  1  0  0  0
157158  1  0  0  0
157159  1  0  0  0
160161  1  0  0  0
160162  1  0  0  0
163164  1  0  0  0
163165  1  0  0  0
166167  1  0  0  0
166168  1  0  0  0
169170  1  0  0  0
169171  1  0  0  0
172173  1  0  0  0
172174  1  0  0  0
175176  1  0  0  0
175177  1  0  0  0
178179  1  0  0  0
178180  1  0  0  0
181182  1  0  0  0
181183  1  0  0  0
184185  1  0  0  0
184186  1  0  0  0
187188  1  0  0  0
187189  1  0  0  0
190191  1  0  0  0
190192  1  0  0  0
193194  1  0  0  0
193195  1  0  0  0
196197  1  0  0  0
196198  1  0  0  0
199200  1  0  0  0
199201  1  0  0  0
202203  1  0  0  0
202204  1  0  0  0
205206  1  0  0  0
205207  1  0  0  0
208209  1  0  0  0
208210  1  0  0  0
211212  1  0  0  0
211213  1  0  0  0
214215  1  0  0  0
214216  1  0  0  0
217218  1  0  0  0
217219  1  0  0  0
220221  1  0  0  0
220222  1  0  0  0
223224  1  0  0  0
223225  1  0  0  0
226227  1  0  0  0
226228  1  0  0  0
229230  1  0  0  0
229231  1  0  0  0
232233  1  0  0  0
232234  1  0  0  0
235236  1  0  0  0
235237  1  0  0  0
238239  1  0  0  0
238240  1  0  0  0
241242  1  0  0  0
241243  1  0  0  0
244245  1  0  0  0
244246  1  0  0  0
247248  1  0  0  0
247249  1  0  0  0
250251  1  0  0  0
250252  1  0  0  0
253254  1  0  0  0
253255  1  0  0  0
256257  1  0  0  0
256258  1  0  0  0
259260  1  0  0  0
259261  1  0  0  0
262263  1  0  0  0
262264  1  0  0  0
265266  1  0  0  0
265267  1  0  0  0
268269  1  0  0  0
268270  1  0  0  0
271272  1  0  0  0
271273  1  0  0  0
274275  1  0  0  0
274276  1  0  0  0
277278  1  0  0  0
277279  1  0  0  0
280281  1  0  0  0
280282  1  0  0  0
283284  1  0  0  0
283285  1  0  0  0
286287  1  0  0  0
286288  1  0  0  0
289290  1  0  0  0
289291  1  0  0  0
292293  1  0  0  0
292294  1  0  0  0
295296  1  0  0  0
295297  1  0  0  0
298299  1  0  0  0
298300  1  0  0  0
301302  1  0  0  0
301303  1  0  0  0
304305  1  0  0  0
304306  1  0  0  0
307308  1  0  0  0
307309  1  0  0  0
310311  1  0  0  0
310312  1  0  0  0
313314  1  0  0  0
313315  1  0  0  0
316317  1  0  0  0
316318  1  0  0  0
319320  1  0  0  0
319321  1  0  0  0
322323  1  0  0  0
322324  1  0  0  0
325326  1  0  0  0
325327  1  0  0  0
328329  1  0  0  0
328330  1  0  0  0
331332  1  0  0  0
331333  1  0  0  0
334335  1  0  0  0
334336  1  0  0  0
337338  1  0  0  0
337339  1  0  0  0
340341  1  0  0  0
340342  1  0  0  0
343344  1  0  0  0
343345  1  0  0  0
346347  1  0  0  0
346348  1  0  0  0
349350  1  0  0  0
349351  1  0  0  0
352353  1  0  0  0
352354  1  0  0  0
355356  1  0  0  0
355357  1  0  0  0
358359  1  0  0  0
358360  1  0  0  0
361362  1  0  0  0
361363  1  0  0  0
364365  1  0  0  0
364366  1  0  0  0
367368  1  0  0  0
367369  1  0  0  0
370371  1  0  0  0
370372  1  0  0  0
373374  1  0  0  0
373375  1  0  0  0
376377  1  0  0  0
376378  1  0  0  0
379380  1  0  0  0
379381  1  0  0  0
382383  1  0  0  0
382384  1  0  0  0
385386  1  0  0  0
385387  1  0  0  0
388389  1  0  0  0
388390  1  0  0  0
391392  1  0  0  0
391393  1  0  0  0
394395  1  0  0  0
394396  1  0  0  0
397398  1  0  0  0
397399  1  0  0  0
400401  1  0  0  0
400402  1  0  0  0
403404  1  0  0  0
403405  1  0  0  0
406407  1  0  0  0
406408  1  0  0  0
M  END
> <s_m_entry_id>
5498

> <s_m_entry_name>
SZMAP_Mpro_7JPY.6_merged136

> <s_m_Source_Path>
C:\Users\ifige\Documents\lab_projects\Mpro\szmap\7JPY\SZMAP_7JPY

> <s_m_Source_File>
SZMAP_Mpro_7JPY.mae

> <i_m_Source_File_Index>
6

> <szmap_neut_diff_free_energy>
-7.527

> <szmap_vdw>
7.107

> <szmap_order>
0.37

> <szmap_probability>
0.147

$$$$
