7jst_yellow_waters
                    3D
 Structure written by MMmdl.
462308  0  0  1  0            999 V2000
  -12.7440   -6.9425  -24.7710 O   0  0  0  0  0  0
  -13.3737   -6.4050  -24.2905 H   0  0  0  0  0  0
  -13.2226   -7.2383  -25.5454 H   0  0  0  0  0  0
  -31.2440   -6.9425  -22.2710 O   0  0  0  0  0  0
  -30.6143   -6.4050  -21.7905 H   0  0  0  0  0  0
  -30.7654   -7.2383  -23.0454 H   0  0  0  0  0  0
  -31.2440   -6.9425  -22.2710 O   0  0  0  0  0  0
  -30.6143   -7.4800  -22.7515 H   0  0  0  0  0  0
  -30.7654   -6.6467  -21.4966 H   0  0  0  0  0  0
  -31.2440   -6.9425  -22.2710 O   0  0  0  0  0  0
  -30.6143   -6.4050  -22.7515 H   0  0  0  0  0  0
  -30.7654   -7.2383  -21.4966 H   0  0  0  0  0  0
  -22.2440  -10.9425  -34.2710 O   0  0  0  0  0  0
  -22.7245  -11.5722  -33.7335 H   0  0  0  0  0  0
  -21.4696  -11.4211  -34.5668 H   0  0  0  0  0  0
  -22.2440  -10.9425  -34.2710 O   0  0  0  0  0  0
  -21.7635  -11.5722  -33.7335 H   0  0  0  0  0  0
  -23.0184  -11.4211  -34.5668 H   0  0  0  0  0  0
  -22.2440  -10.9425  -34.2710 O   0  0  0  0  0  0
  -22.7245  -11.5722  -34.8085 H   0  0  0  0  0  0
  -21.4696  -11.4211  -33.9752 H   0  0  0  0  0  0
  -22.2440  -10.9425  -34.2710 O   0  0  0  0  0  0
  -21.7635  -11.5722  -34.8085 H   0  0  0  0  0  0
  -23.0184  -11.4211  -33.9752 H   0  0  0  0  0  0
  -14.7440   -5.9425  -25.2710 O   0  0  0  0  0  0
  -14.3548   -6.0347  -24.4013 H   0  0  0  0  0  0
  -14.4482   -6.7169  -25.7496 H   0  0  0  0  0  0
  -14.7440   -7.9425  -24.7710 O   0  0  0  0  0  0
  -14.3548   -7.8503  -25.6407 H   0  0  0  0  0  0
  -14.4482   -7.1681  -24.2924 H   0  0  0  0  0  0
  -21.2440   -4.9425  -35.7710 O   0  0  0  0  0  0
  -21.3362   -5.8122  -35.3818 H   0  0  0  0  0  0
  -22.0184   -4.4639  -35.4752 H   0  0  0  0  0  0
  -28.7440   -2.9425  -26.7710 O   0  0  0  0  0  0
  -29.6706   -3.1825  -26.7710 H   0  0  0  0  0  0
  -28.7440   -1.9853  -26.7710 H   0  0  0  0  0  0
  -30.2440   -7.9425  -26.2710 O   0  0  0  0  0  0
  -30.7815   -8.4230  -25.6413 H   0  0  0  0  0  0
  -29.9482   -7.1681  -25.7924 H   0  0  0  0  0  0
  -14.2440  -10.9425  -29.2710 O   0  0  0  0  0  0
  -14.7245  -10.3128  -28.7335 H   0  0  0  0  0  0
  -13.4696  -10.4639  -29.5668 H   0  0  0  0  0  0
  -14.2440  -10.9425  -29.2710 O   0  0  0  0  0  0
  -14.6332  -10.8503  -30.1407 H   0  0  0  0  0  0
  -14.5398  -10.1681  -28.7924 H   0  0  0  0  0  0
  -14.2440  -10.9425  -27.2710 O   0  0  0  0  0  0
  -14.7245  -10.3128  -27.8085 H   0  0  0  0  0  0
  -13.4696  -10.4639  -26.9752 H   0  0  0  0  0  0
  -22.2440  -11.4425  -20.7710 O   0  0  0  0  0  0
  -22.8737  -11.9800  -21.2515 H   0  0  0  0  0  0
  -22.7226  -11.1467  -19.9966 H   0  0  0  0  0  0
  -22.2440  -11.4425  -20.7710 O   0  0  0  0  0  0
  -22.3362  -12.3122  -20.3818 H   0  0  0  0  0  0
  -23.0184  -10.9639  -20.4752 H   0  0  0  0  0  0
  -22.2440  -11.4425  -20.7710 O   0  0  0  0  0  0
  -22.6332  -11.5347  -19.9013 H   0  0  0  0  0  0
  -22.5398  -12.2169  -21.2496 H   0  0  0  0  0  0
  -22.2440  -11.4425  -20.7710 O   0  0  0  0  0  0
  -23.1706  -11.2025  -20.7710 H   0  0  0  0  0  0
  -22.2440  -12.3997  -20.7710 H   0  0  0  0  0  0
  -22.2440  -11.4425  -20.7710 O   0  0  0  0  0  0
  -22.7815  -10.9620  -20.1413 H   0  0  0  0  0  0
  -21.9482  -12.2169  -20.2924 H   0  0  0  0  0  0
  -20.7440   -8.4425  -31.7710 O   0  0  0  0  0  0
  -20.6518   -9.3122  -31.3818 H   0  0  0  0  0  0
  -19.9696   -7.9639  -31.4752 H   0  0  0  0  0  0
  -20.7440   -8.4425  -31.7710 O   0  0  0  0  0  0
  -20.9840   -8.4425  -30.8444 H   0  0  0  0  0  0
  -19.7868   -8.4425  -31.7710 H   0  0  0  0  0  0
  -20.7440   -8.4425  -31.7710 O   0  0  0  0  0  0
  -20.6518   -7.5728  -31.3818 H   0  0  0  0  0  0
  -19.9696   -8.9211  -31.4752 H   0  0  0  0  0  0
  -20.7440   -8.4425  -31.7710 O   0  0  0  0  0  0
  -20.2065   -7.9620  -31.1413 H   0  0  0  0  0  0
  -21.0398   -9.2169  -31.2924 H   0  0  0  0  0  0
  -21.7440   -4.9425  -22.7710 O   0  0  0  0  0  0
  -21.5040   -4.9425  -23.6976 H   0  0  0  0  0  0
  -22.7012   -4.9425  -22.7710 H   0  0  0  0  0  0
  -21.7440   -4.9425  -22.7710 O   0  0  0  0  0  0
  -22.6137   -5.3317  -22.8632 H   0  0  0  0  0  0
  -21.2654   -5.2383  -23.5454 H   0  0  0  0  0  0
  -21.7440   -4.9425  -22.7710 O   0  0  0  0  0  0
  -21.8362   -5.8122  -23.1602 H   0  0  0  0  0  0
  -22.5184   -4.4639  -23.0668 H   0  0  0  0  0  0
  -16.2440  -10.4425  -29.2710 O   0  0  0  0  0  0
  -16.7245   -9.8128  -29.8085 H   0  0  0  0  0  0
  -15.4696   -9.9639  -28.9752 H   0  0  0  0  0  0
  -16.2440  -10.4425  -29.2710 O   0  0  0  0  0  0
  -15.8548  -10.3503  -30.1407 H   0  0  0  0  0  0
  -15.9482   -9.6681  -28.7924 H   0  0  0  0  0  0
  -16.2440  -10.4425  -29.2710 O   0  0  0  0  0  0
  -15.6143   -9.9050  -28.7905 H   0  0  0  0  0  0
  -15.7654  -10.7383  -30.0454 H   0  0  0  0  0  0
  -16.2440  -10.4425  -29.2710 O   0  0  0  0  0  0
  -15.3743  -10.0533  -29.1788 H   0  0  0  0  0  0
  -16.7226  -10.1467  -28.4966 H   0  0  0  0  0  0
  -15.2440   -9.4425  -30.7710 O   0  0  0  0  0  0
  -14.8548   -9.3503  -29.9013 H   0  0  0  0  0  0
  -14.9482   -8.6681  -31.2496 H   0  0  0  0  0  0
  -16.2440  -10.4425  -27.2710 O   0  0  0  0  0  0
  -16.7245   -9.8128  -26.7335 H   0  0  0  0  0  0
  -15.4696   -9.9639  -27.5668 H   0  0  0  0  0  0
  -16.2440  -10.4425  -27.2710 O   0  0  0  0  0  0
  -15.3743  -10.0533  -27.3632 H   0  0  0  0  0  0
  -16.7226  -10.1467  -28.0454 H   0  0  0  0  0  0
  -16.2440  -10.4425  -27.2710 O   0  0  0  0  0  0
  -15.6143   -9.9050  -27.7515 H   0  0  0  0  0  0
  -15.7654  -10.7383  -26.4966 H   0  0  0  0  0  0
  -16.2440  -10.4425  -27.2710 O   0  0  0  0  0  0
  -15.8548  -10.3503  -26.4013 H   0  0  0  0  0  0
  -15.9482   -9.6681  -27.7496 H   0  0  0  0  0  0
  -27.2440   -2.4425  -26.2710 O   0  0  0  0  0  0
  -28.1706   -2.2025  -26.2710 H   0  0  0  0  0  0
  -27.2440   -3.3997  -26.2710 H   0  0  0  0  0  0
  -19.7440   -3.4425  -22.7710 O   0  0  0  0  0  0
  -19.6518   -4.3122  -23.1602 H   0  0  0  0  0  0
  -18.9696   -2.9639  -23.0668 H   0  0  0  0  0  0
  -22.2440   -2.4425  -27.7710 O   0  0  0  0  0  0
  -21.3174   -2.6825  -27.7710 H   0  0  0  0  0  0
  -22.2440   -1.4853  -27.7710 H   0  0  0  0  0  0
  -22.2440   -2.4425  -27.7710 O   0  0  0  0  0  0
  -22.7245   -1.8128  -28.3085 H   0  0  0  0  0  0
  -21.4696   -1.9639  -27.4752 H   0  0  0  0  0  0
  -13.2440   -9.4425  -25.7710 O   0  0  0  0  0  0
  -13.3362   -8.5728  -26.1602 H   0  0  0  0  0  0
  -14.0184   -9.9211  -26.0668 H   0  0  0  0  0  0
  -13.2440   -9.4425  -25.7710 O   0  0  0  0  0  0
  -13.2440   -8.5159  -25.5310 H   0  0  0  0  0  0
  -13.2440   -9.4425  -26.7282 H   0  0  0  0  0  0
  -27.2440   -6.9425  -39.7710 O   0  0  0  0  0  0
  -28.1137   -6.5533  -39.6788 H   0  0  0  0  0  0
  -26.7654   -6.6467  -38.9966 H   0  0  0  0  0  0
  -17.2440   -9.4425  -28.2710 O   0  0  0  0  0  0
  -16.3174   -9.2025  -28.2710 H   0  0  0  0  0  0
  -17.2440  -10.3997  -28.2710 H   0  0  0  0  0  0
  -17.2440   -9.4425  -28.2710 O   0  0  0  0  0  0
  -17.4840   -9.4425  -29.1976 H   0  0  0  0  0  0
  -16.2868   -9.4425  -28.2710 H   0  0  0  0  0  0
  -17.2440   -9.4425  -28.2710 O   0  0  0  0  0  0
  -17.4840   -9.4425  -27.3444 H   0  0  0  0  0  0
  -16.2868   -9.4425  -28.2710 H   0  0  0  0  0  0
  -28.7440   -6.9425  -27.2710 O   0  0  0  0  0  0
  -28.3548   -6.8503  -26.4013 H   0  0  0  0  0  0
  -28.4482   -6.1681  -27.7496 H   0  0  0  0  0  0
  -28.7440   -6.9425  -27.2710 O   0  0  0  0  0  0
  -29.2245   -6.3128  -26.7335 H   0  0  0  0  0  0
  -27.9696   -6.4639  -27.5668 H   0  0  0  0  0  0
  -28.7440   -6.9425  -27.2710 O   0  0  0  0  0  0
  -27.8174   -7.1825  -27.2710 H   0  0  0  0  0  0
  -28.7440   -5.9853  -27.2710 H   0  0  0  0  0  0
  -28.7440   -6.9425  -27.2710 O   0  0  0  0  0  0
  -28.7440   -6.0159  -27.5110 H   0  0  0  0  0  0
  -28.7440   -6.9425  -26.3138 H   0  0  0  0  0  0
  -19.7440   -4.9425  -29.2710 O   0  0  0  0  0  0
  -20.3737   -5.4800  -29.7515 H   0  0  0  0  0  0
  -20.2226   -4.6467  -28.4966 H   0  0  0  0  0  0
  -19.7440   -4.9425  -29.2710 O   0  0  0  0  0  0
  -20.6706   -4.7025  -29.2710 H   0  0  0  0  0  0
  -19.7440   -5.8997  -29.2710 H   0  0  0  0  0  0
  -19.7440   -4.9425  -29.2710 O   0  0  0  0  0  0
  -20.1332   -5.0347  -28.4013 H   0  0  0  0  0  0
  -20.0398   -5.7169  -29.7496 H   0  0  0  0  0  0
  -19.7440   -4.9425  -29.2710 O   0  0  0  0  0  0
  -19.8362   -5.8122  -28.8818 H   0  0  0  0  0  0
  -20.5184   -4.4639  -28.9752 H   0  0  0  0  0  0
  -27.7440   -4.9425  -20.2710 O   0  0  0  0  0  0
  -28.2245   -5.5722  -19.7335 H   0  0  0  0  0  0
  -26.9696   -5.4211  -20.5668 H   0  0  0  0  0  0
  -27.7440   -4.9425  -20.2710 O   0  0  0  0  0  0
  -27.2635   -5.5722  -20.8085 H   0  0  0  0  0  0
  -28.5184   -5.4211  -19.9752 H   0  0  0  0  0  0
  -27.7440   -4.9425  -20.2710 O   0  0  0  0  0  0
  -27.3548   -5.0347  -21.1407 H   0  0  0  0  0  0
  -27.4482   -5.7169  -19.7924 H   0  0  0  0  0  0
  -12.2440   -3.9425  -18.2710 O   0  0  0  0  0  0
  -11.8548   -3.8503  -17.4013 H   0  0  0  0  0  0
  -11.9482   -3.1681  -18.7496 H   0  0  0  0  0  0
  -12.2440   -3.9425  -18.2710 O   0  0  0  0  0  0
  -11.6143   -3.4050  -18.7515 H   0  0  0  0  0  0
  -11.7654   -4.2383  -17.4966 H   0  0  0  0  0  0
  -19.2440   -6.4425  -32.7710 O   0  0  0  0  0  0
  -18.6143   -5.9050  -32.2905 H   0  0  0  0  0  0
  -18.7654   -6.7383  -33.5454 H   0  0  0  0  0  0
  -19.2440   -6.4425  -32.7710 O   0  0  0  0  0  0
  -18.6143   -6.9800  -33.2515 H   0  0  0  0  0  0
  -18.7654   -6.1467  -31.9966 H   0  0  0  0  0  0
  -19.2440   -6.4425  -32.7710 O   0  0  0  0  0  0
  -19.1518   -7.3122  -32.3818 H   0  0  0  0  0  0
  -18.4696   -5.9639  -32.4752 H   0  0  0  0  0  0
  -19.2440   -6.4425  -32.7710 O   0  0  0  0  0  0
  -18.3743   -6.0533  -32.6788 H   0  0  0  0  0  0
  -19.7226   -6.1467  -31.9966 H   0  0  0  0  0  0
  -17.7440   -9.9425  -20.7710 O   0  0  0  0  0  0
  -17.3548  -10.0347  -21.6407 H   0  0  0  0  0  0
  -17.4482  -10.7169  -20.2924 H   0  0  0  0  0  0
  -17.7440   -9.9425  -20.7710 O   0  0  0  0  0  0
  -18.2245  -10.5722  -20.2335 H   0  0  0  0  0  0
  -16.9696  -10.4211  -21.0668 H   0  0  0  0  0  0
  -17.7440   -9.9425  -20.7710 O   0  0  0  0  0  0
  -17.2635  -10.5722  -21.3085 H   0  0  0  0  0  0
  -18.5184  -10.4211  -20.4752 H   0  0  0  0  0  0
  -17.7440   -9.9425  -20.7710 O   0  0  0  0  0  0
  -18.1332  -10.0347  -19.9013 H   0  0  0  0  0  0
  -18.0398  -10.7169  -21.2496 H   0  0  0  0  0  0
  -29.7440    1.5575  -38.7710 O   0  0  0  0  0  0
  -30.3737    2.0950  -39.2515 H   0  0  0  0  0  0
  -30.2226    1.2617  -37.9966 H   0  0  0  0  0  0
  -29.7440    1.5575  -38.7710 O   0  0  0  0  0  0
  -30.3737    1.0200  -38.2905 H   0  0  0  0  0  0
  -30.2226    1.8533  -39.5454 H   0  0  0  0  0  0
  -29.7440    1.5575  -38.7710 O   0  0  0  0  0  0
  -30.1332    1.4653  -37.9013 H   0  0  0  0  0  0
  -30.0398    0.7831  -39.2496 H   0  0  0  0  0  0
  -29.7440    1.5575  -38.7710 O   0  0  0  0  0  0
  -29.8362    2.4272  -38.3818 H   0  0  0  0  0  0
  -30.5184    1.0789  -38.4752 H   0  0  0  0  0  0
  -18.2440   -7.9425  -31.7710 O   0  0  0  0  0  0
  -17.3174   -8.1825  -31.7710 H   0  0  0  0  0  0
  -18.2440   -6.9853  -31.7710 H   0  0  0  0  0  0
  -18.2440   -7.9425  -31.7710 O   0  0  0  0  0  0
  -17.8548   -7.8503  -30.9013 H   0  0  0  0  0  0
  -17.9482   -7.1681  -32.2496 H   0  0  0  0  0  0
  -18.2440   -7.9425  -31.7710 O   0  0  0  0  0  0
  -18.7245   -7.3128  -31.2335 H   0  0  0  0  0  0
  -17.4696   -7.4639  -32.0668 H   0  0  0  0  0  0
  -23.2440   -4.9425  -31.7710 O   0  0  0  0  0  0
  -22.7065   -4.4620  -32.4007 H   0  0  0  0  0  0
  -23.5398   -5.7169  -32.2496 H   0  0  0  0  0  0
  -23.2440   -4.9425  -31.7710 O   0  0  0  0  0  0
  -23.7245   -5.5722  -32.3085 H   0  0  0  0  0  0
  -22.4696   -5.4211  -31.4752 H   0  0  0  0  0  0
  -23.2440   -4.9425  -31.7710 O   0  0  0  0  0  0
  -22.3743   -5.3317  -31.8632 H   0  0  0  0  0  0
  -23.7226   -5.2383  -32.5454 H   0  0  0  0  0  0
  -24.7440   -3.9425  -20.7710 O   0  0  0  0  0  0
  -24.8362   -3.0728  -20.3818 H   0  0  0  0  0  0
  -25.5184   -4.4211  -20.4752 H   0  0  0  0  0  0
  -24.7440   -3.9425  -20.7710 O   0  0  0  0  0  0
  -25.1332   -3.8503  -21.6407 H   0  0  0  0  0  0
  -25.0398   -3.1681  -20.2924 H   0  0  0  0  0  0
  -24.7440   -3.9425  -20.7710 O   0  0  0  0  0  0
  -25.2815   -3.4620  -20.1413 H   0  0  0  0  0  0
  -24.4482   -4.7169  -20.2924 H   0  0  0  0  0  0
  -24.7440   -3.9425  -20.7710 O   0  0  0  0  0  0
  -25.1332   -3.8503  -19.9013 H   0  0  0  0  0  0
  -25.0398   -3.1681  -21.2496 H   0  0  0  0  0  0
  -18.2440   -9.4425  -25.2710 O   0  0  0  0  0  0
  -17.3743   -9.0533  -25.1788 H   0  0  0  0  0  0
  -18.7226   -9.1467  -24.4966 H   0  0  0  0  0  0
  -18.2440   -9.4425  -25.2710 O   0  0  0  0  0  0
  -18.7815   -8.9620  -24.6413 H   0  0  0  0  0  0
  -17.9482  -10.2169  -24.7924 H   0  0  0  0  0  0
  -18.2440   -9.4425  -25.2710 O   0  0  0  0  0  0
  -18.6332   -9.3503  -24.4013 H   0  0  0  0  0  0
  -18.5398   -8.6681  -25.7496 H   0  0  0  0  0  0
  -30.7440    1.0575  -39.7710 O   0  0  0  0  0  0
  -31.1332    0.9653  -38.9013 H   0  0  0  0  0  0
  -31.0398    0.2831  -40.2496 H   0  0  0  0  0  0
  -30.7440    1.0575  -39.7710 O   0  0  0  0  0  0
  -31.3737    1.5950  -40.2515 H   0  0  0  0  0  0
  -31.2226    0.7617  -38.9966 H   0  0  0  0  0  0
  -30.7440    1.0575  -39.7710 O   0  0  0  0  0  0
  -29.8743    0.6683  -39.6788 H   0  0  0  0  0  0
  -31.2226    0.7617  -38.9966 H   0  0  0  0  0  0
  -30.7440    1.0575  -39.7710 O   0  0  0  0  0  0
  -31.1332    1.1497  -38.9013 H   0  0  0  0  0  0
  -31.0398    1.8319  -40.2496 H   0  0  0  0  0  0
  -26.7440   -9.9425  -28.2710 O   0  0  0  0  0  0
  -27.6706   -9.7025  -28.2710 H   0  0  0  0  0  0
  -26.7440  -10.8997  -28.2710 H   0  0  0  0  0  0
  -26.7440   -9.9425  -28.2710 O   0  0  0  0  0  0
  -27.6137   -9.5533  -28.1788 H   0  0  0  0  0  0
  -26.2654   -9.6467  -27.4966 H   0  0  0  0  0  0
  -26.7440   -9.9425  -28.2710 O   0  0  0  0  0  0
  -27.6137   -9.5533  -28.3632 H   0  0  0  0  0  0
  -26.2654   -9.6467  -29.0454 H   0  0  0  0  0  0
  -26.7440   -9.9425  -28.2710 O   0  0  0  0  0  0
  -26.5040   -9.9425  -27.3444 H   0  0  0  0  0  0
  -27.7012   -9.9425  -28.2710 H   0  0  0  0  0  0
  -24.7440   -5.9425  -31.2710 O   0  0  0  0  0  0
  -24.1143   -5.4050  -30.7905 H   0  0  0  0  0  0
  -24.2654   -6.2383  -32.0454 H   0  0  0  0  0  0
  -24.7440   -5.9425  -31.2710 O   0  0  0  0  0  0
  -25.6137   -6.3317  -31.3632 H   0  0  0  0  0  0
  -24.2654   -6.2383  -32.0454 H   0  0  0  0  0  0
  -24.7440   -5.9425  -31.2710 O   0  0  0  0  0  0
  -24.3548   -6.0347  -32.1407 H   0  0  0  0  0  0
  -24.4482   -6.7169  -30.7924 H   0  0  0  0  0  0
  -18.2440   -7.9425  -25.2710 O   0  0  0  0  0  0
  -17.3743   -8.3317  -25.1788 H   0  0  0  0  0  0
  -18.7226   -8.2383  -24.4966 H   0  0  0  0  0  0
  -18.2440   -7.9425  -25.2710 O   0  0  0  0  0  0
  -18.7815   -8.4230  -24.6413 H   0  0  0  0  0  0
  -17.9482   -7.1681  -24.7924 H   0  0  0  0  0  0
  -18.2440   -7.9425  -25.2710 O   0  0  0  0  0  0
  -18.6332   -8.0347  -24.4013 H   0  0  0  0  0  0
  -18.5398   -8.7169  -25.7496 H   0  0  0  0  0  0
  -17.2440   -9.9425  -24.2710 O   0  0  0  0  0  0
  -18.1137   -9.5533  -24.1788 H   0  0  0  0  0  0
  -16.7654   -9.6467  -23.4966 H   0  0  0  0  0  0
  -17.2440   -9.9425  -24.2710 O   0  0  0  0  0  0
  -16.7635   -9.3128  -24.8085 H   0  0  0  0  0  0
  -18.0184   -9.4639  -23.9752 H   0  0  0  0  0  0
  -17.2440   -9.9425  -24.2710 O   0  0  0  0  0  0
  -17.7245   -9.3128  -23.7335 H   0  0  0  0  0  0
  -16.4696   -9.4639  -24.5668 H   0  0  0  0  0  0
  -17.2440   -9.9425  -24.2710 O   0  0  0  0  0  0
  -17.8737   -9.4050  -23.7905 H   0  0  0  0  0  0
  -17.7226  -10.2383  -25.0454 H   0  0  0  0  0  0
  -23.7440   -6.4425  -30.7710 O   0  0  0  0  0  0
  -23.7440   -5.5159  -30.5310 H   0  0  0  0  0  0
  -23.7440   -6.4425  -31.7282 H   0  0  0  0  0  0
  -23.7440   -6.4425  -30.7710 O   0  0  0  0  0  0
  -23.7440   -7.3691  -30.5310 H   0  0  0  0  0  0
  -23.7440   -6.4425  -31.7282 H   0  0  0  0  0  0
  -23.7440   -6.4425  -30.7710 O   0  0  0  0  0  0
  -23.9840   -6.4425  -31.6976 H   0  0  0  0  0  0
  -22.7868   -6.4425  -30.7710 H   0  0  0  0  0  0
  -21.2440   -8.9425  -36.2710 O   0  0  0  0  0  0
  -21.2440   -8.0159  -36.0310 H   0  0  0  0  0  0
  -21.2440   -8.9425  -37.2282 H   0  0  0  0  0  0
  -21.2440   -8.9425  -36.2710 O   0  0  0  0  0  0
  -21.7815   -9.4230  -36.9007 H   0  0  0  0  0  0
  -20.9482   -8.1681  -36.7496 H   0  0  0  0  0  0
  -21.2440   -8.9425  -36.2710 O   0  0  0  0  0  0
  -20.7065   -9.4230  -36.9007 H   0  0  0  0  0  0
  -21.5398   -8.1681  -36.7496 H   0  0  0  0  0  0
  -17.7440   -3.4425  -25.2710 O   0  0  0  0  0  0
  -17.3548   -3.3503  -24.4013 H   0  0  0  0  0  0
  -17.4482   -2.6681  -25.7496 H   0  0  0  0  0  0
  -17.7440   -3.4425  -25.2710 O   0  0  0  0  0  0
  -17.1143   -2.9050  -25.7515 H   0  0  0  0  0  0
  -17.2654   -3.7383  -24.4966 H   0  0  0  0  0  0
  -17.7440   -3.4425  -25.2710 O   0  0  0  0  0  0
  -18.2245   -2.8128  -24.7335 H   0  0  0  0  0  0
  -16.9696   -2.9639  -25.5668 H   0  0  0  0  0  0
  -29.2440   -7.4425  -19.7710 O   0  0  0  0  0  0
  -28.7635   -6.8128  -19.2335 H   0  0  0  0  0  0
  -30.0184   -6.9639  -20.0668 H   0  0  0  0  0  0
  -29.2440   -7.4425  -19.7710 O   0  0  0  0  0  0
  -28.7635   -6.8128  -20.3085 H   0  0  0  0  0  0
  -30.0184   -6.9639  -19.4752 H   0  0  0  0  0  0
  -29.2440   -7.4425  -19.7710 O   0  0  0  0  0  0
  -30.1706   -7.6825  -19.7710 H   0  0  0  0  0  0
  -29.2440   -6.4853  -19.7710 H   0  0  0  0  0  0
  -29.2440   -7.4425  -19.7710 O   0  0  0  0  0  0
  -30.1137   -7.0533  -19.8632 H   0  0  0  0  0  0
  -28.7654   -7.1467  -20.5454 H   0  0  0  0  0  0
  -29.2440   -7.4425  -19.7710 O   0  0  0  0  0  0
  -30.1137   -7.0533  -19.6788 H   0  0  0  0  0  0
  -28.7654   -7.1467  -18.9966 H   0  0  0  0  0  0
  -29.7440   -7.4425  -18.7710 O   0  0  0  0  0  0
  -29.8362   -6.5728  -19.1602 H   0  0  0  0  0  0
  -30.5184   -7.9211  -19.0668 H   0  0  0  0  0  0
  -29.7440   -7.4425  -18.7710 O   0  0  0  0  0  0
  -30.1332   -7.3503  -17.9013 H   0  0  0  0  0  0
  -30.0398   -6.6681  -19.2496 H   0  0  0  0  0  0
  -29.7440   -7.4425  -18.7710 O   0  0  0  0  0  0
  -30.2245   -6.8128  -19.3085 H   0  0  0  0  0  0
  -28.9696   -6.9639  -18.4752 H   0  0  0  0  0  0
  -29.7440   -7.4425  -18.7710 O   0  0  0  0  0  0
  -30.1332   -7.3503  -19.6407 H   0  0  0  0  0  0
  -30.0398   -6.6681  -18.2924 H   0  0  0  0  0  0
  -29.7440   -7.4425  -18.7710 O   0  0  0  0  0  0
  -29.2065   -7.9230  -19.4007 H   0  0  0  0  0  0
  -30.0398   -6.6681  -19.2496 H   0  0  0  0  0  0
  -27.7440   -4.4425  -40.2710 O   0  0  0  0  0  0
  -28.6137   -4.8317  -40.1788 H   0  0  0  0  0  0
  -27.2654   -4.7383  -39.4966 H   0  0  0  0  0  0
  -27.7440   -4.4425  -40.2710 O   0  0  0  0  0  0
  -26.8743   -4.8317  -40.1788 H   0  0  0  0  0  0
  -28.2226   -4.7383  -39.4966 H   0  0  0  0  0  0
  -27.7440   -4.4425  -40.2710 O   0  0  0  0  0  0
  -28.1332   -4.5347  -39.4013 H   0  0  0  0  0  0
  -28.0398   -5.2169  -40.7496 H   0  0  0  0  0  0
  -27.7440   -4.4425  -40.2710 O   0  0  0  0  0  0
  -28.3737   -3.9050  -40.7515 H   0  0  0  0  0  0
  -28.2226   -4.7383  -39.4966 H   0  0  0  0  0  0
  -20.2440  -11.4425  -24.7710 O   0  0  0  0  0  0
  -20.1518  -10.5728  -25.1602 H   0  0  0  0  0  0
  -19.4696  -11.9211  -25.0668 H   0  0  0  0  0  0
  -20.2440  -11.4425  -24.7710 O   0  0  0  0  0  0
  -20.3362  -10.5728  -25.1602 H   0  0  0  0  0  0
  -21.0184  -11.9211  -25.0668 H   0  0  0  0  0  0
  -20.2440  -11.4425  -24.7710 O   0  0  0  0  0  0
  -20.7815  -11.9230  -25.4007 H   0  0  0  0  0  0
  -19.9482  -10.6681  -25.2496 H   0  0  0  0  0  0
  -20.2440  -11.4425  -24.7710 O   0  0  0  0  0  0
  -19.7065  -11.9230  -25.4007 H   0  0  0  0  0  0
  -20.5398  -10.6681  -25.2496 H   0  0  0  0  0  0
  -20.2440  -11.4425  -24.7710 O   0  0  0  0  0  0
  -21.1137  -11.0533  -24.8632 H   0  0  0  0  0  0
  -19.7654  -11.1467  -25.5454 H   0  0  0  0  0  0
  -20.2440  -11.4425  -24.7710 O   0  0  0  0  0  0
  -19.7065  -10.9620  -25.4007 H   0  0  0  0  0  0
  -20.5398  -12.2169  -25.2496 H   0  0  0  0  0  0
  -20.2440  -11.4425  -24.7710 O   0  0  0  0  0  0
  -20.1518  -12.3122  -25.1602 H   0  0  0  0  0  0
  -19.4696  -10.9639  -25.0668 H   0  0  0  0  0  0
  -19.7440   -7.9425  -25.2710 O   0  0  0  0  0  0
  -19.2065   -8.4230  -24.6413 H   0  0  0  0  0  0
  -20.0398   -7.1681  -24.7924 H   0  0  0  0  0  0
  -19.7440   -7.9425  -25.2710 O   0  0  0  0  0  0
  -19.1143   -7.4050  -25.7515 H   0  0  0  0  0  0
  -19.2654   -8.2383  -24.4966 H   0  0  0  0  0  0
  -19.7440   -7.9425  -25.2710 O   0  0  0  0  0  0
  -20.6137   -8.3317  -25.1788 H   0  0  0  0  0  0
  -19.2654   -8.2383  -24.4966 H   0  0  0  0  0  0
  -19.7440   -7.9425  -36.2710 O   0  0  0  0  0  0
  -18.8743   -7.5533  -36.3632 H   0  0  0  0  0  0
  -20.2226   -7.6467  -37.0454 H   0  0  0  0  0  0
  -19.7440   -7.9425  -36.2710 O   0  0  0  0  0  0
  -20.1332   -7.8503  -37.1407 H   0  0  0  0  0  0
  -20.0398   -7.1681  -35.7924 H   0  0  0  0  0  0
  -19.7440   -7.9425  -36.2710 O   0  0  0  0  0  0
  -20.2815   -7.4620  -36.9007 H   0  0  0  0  0  0
  -19.4482   -8.7169  -36.7496 H   0  0  0  0  0  0
  -19.7440   -7.9425  -36.2710 O   0  0  0  0  0  0
  -20.3737   -8.4800  -35.7905 H   0  0  0  0  0  0
  -20.2226   -7.6467  -37.0454 H   0  0  0  0  0  0
  -28.2440  -11.4425  -27.2710 O   0  0  0  0  0  0
  -28.3362  -10.5728  -27.6602 H   0  0  0  0  0  0
  -29.0184  -11.9211  -27.5668 H   0  0  0  0  0  0
  -28.2440  -11.4425  -27.2710 O   0  0  0  0  0  0
  -28.6332  -11.3503  -26.4013 H   0  0  0  0  0  0
  -28.5398  -10.6681  -27.7496 H   0  0  0  0  0  0
  -28.2440  -11.4425  -27.2710 O   0  0  0  0  0  0
  -27.7065  -11.9230  -27.9007 H   0  0  0  0  0  0
  -28.5398  -10.6681  -27.7496 H   0  0  0  0  0  0
  -28.2440  -11.4425  -27.2710 O   0  0  0  0  0  0
  -28.7245  -10.8128  -27.8085 H   0  0  0  0  0  0
  -27.4696  -10.9639  -26.9752 H   0  0  0  0  0  0
  -16.7440   -9.4425  -22.7710 O   0  0  0  0  0  0
  -16.8362  -10.3122  -23.1602 H   0  0  0  0  0  0
  -17.5184   -8.9639  -23.0668 H   0  0  0  0  0  0
  -29.7440   -0.9425  -40.2710 O   0  0  0  0  0  0
  -30.3737   -1.4800  -40.7515 H   0  0  0  0  0  0
  -30.2226   -0.6467  -39.4966 H   0  0  0  0  0  0
  -29.7440   -0.9425  -40.2710 O   0  0  0  0  0  0
  -30.6137   -1.3317  -40.3632 H   0  0  0  0  0  0
  -29.2654   -1.2383  -41.0454 H   0  0  0  0  0  0
  -29.7440   -0.9425  -40.2710 O   0  0  0  0  0  0
  -29.8362   -0.0728  -40.6602 H   0  0  0  0  0  0
  -30.5184   -1.4211  -40.5668 H   0  0  0  0  0  0
  -12.2440   -6.4425  -36.7710 O   0  0  0  0  0  0
  -11.6143   -6.9800  -37.2515 H   0  0  0  0  0  0
  -11.7654   -6.1467  -35.9966 H   0  0  0  0  0  0
  -18.2440   -7.9425  -37.7710 O   0  0  0  0  0  0
  -18.7245   -7.3128  -37.2335 H   0  0  0  0  0  0
  -17.4696   -7.4639  -38.0668 H   0  0  0  0  0  0
  -16.2440   -9.4425  -40.2710 O   0  0  0  0  0  0
  -16.6332   -9.3503  -39.4013 H   0  0  0  0  0  0
  -16.5398   -8.6681  -40.7496 H   0  0  0  0  0  0
  -16.2440   -9.4425  -40.2710 O   0  0  0  0  0  0
  -16.3362   -8.5728  -40.6602 H   0  0  0  0  0  0
  -17.0184   -9.9211  -40.5668 H   0  0  0  0  0  0
  -18.2440   -6.9425  -36.7710 O   0  0  0  0  0  0
  -18.1518   -7.8122  -37.1602 H   0  0  0  0  0  0
  -17.4696   -6.4639  -37.0668 H   0  0  0  0  0  0
  -18.2440   -6.9425  -36.7710 O   0  0  0  0  0  0
  -17.8548   -6.8503  -37.6407 H   0  0  0  0  0  0
  -17.9482   -6.1681  -36.2924 H   0  0  0  0  0  0
  1  2  1  0  0  0
  1  3  1  0  0  0
  4  5  1  0  0  0
  4  6  1  0  0  0
  7  8  1  0  0  0
  7  9  1  0  0  0
 10 11  1  0  0  0
 10 12  1  0  0  0
 13 14  1  0  0  0
 13 15  1  0  0  0
 16 17  1  0  0  0
 16 18  1  0  0  0
 19 20  1  0  0  0
 19 21  1  0  0  0
 22 23  1  0  0  0
 22 24  1  0  0  0
 25 26  1  0  0  0
 25 27  1  0  0  0
 28 29  1  0  0  0
 28 30  1  0  0  0
 31 32  1  0  0  0
 31 33  1  0  0  0
 34 35  1  0  0  0
 34 36  1  0  0  0
 37 38  1  0  0  0
 37 39  1  0  0  0
 40 41  1  0  0  0
 40 42  1  0  0  0
 43 44  1  0  0  0
 43 45  1  0  0  0
 46 47  1  0  0  0
 46 48  1  0  0  0
 49 50  1  0  0  0
 49 51  1  0  0  0
 52 53  1  0  0  0
 52 54  1  0  0  0
 55 56  1  0  0  0
 55 57  1  0  0  0
 58 59  1  0  0  0
 58 60  1  0  0  0
 61 62  1  0  0  0
 61 63  1  0  0  0
 64 65  1  0  0  0
 64 66  1  0  0  0
 67 68  1  0  0  0
 67 69  1  0  0  0
 70 71  1  0  0  0
 70 72  1  0  0  0
 73 74  1  0  0  0
 73 75  1  0  0  0
 76 77  1  0  0  0
 76 78  1  0  0  0
 79 80  1  0  0  0
 79 81  1  0  0  0
 82 83  1  0  0  0
 82 84  1  0  0  0
 85 86  1  0  0  0
 85 87  1  0  0  0
 88 89  1  0  0  0
 88 90  1  0  0  0
 91 92  1  0  0  0
 91 93  1  0  0  0
 94 95  1  0  0  0
 94 96  1  0  0  0
 97 98  1  0  0  0
 97 99  1  0  0  0
100101  1  0  0  0
100102  1  0  0  0
103104  1  0  0  0
103105  1  0  0  0
106107  1  0  0  0
106108  1  0  0  0
109110  1  0  0  0
109111  1  0  0  0
112113  1  0  0  0
112114  1  0  0  0
115116  1  0  0  0
115117  1  0  0  0
118119  1  0  0  0
118120  1  0  0  0
121122  1  0  0  0
121123  1  0  0  0
124125  1  0  0  0
124126  1  0  0  0
127128  1  0  0  0
127129  1  0  0  0
130131  1  0  0  0
130132  1  0  0  0
133134  1  0  0  0
133135  1  0  0  0
136137  1  0  0  0
136138  1  0  0  0
139140  1  0  0  0
139141  1  0  0  0
142143  1  0  0  0
142144  1  0  0  0
145146  1  0  0  0
145147  1  0  0  0
148149  1  0  0  0
148150  1  0  0  0
151152  1  0  0  0
151153  1  0  0  0
154155  1  0  0  0
154156  1  0  0  0
157158  1  0  0  0
157159  1  0  0  0
160161  1  0  0  0
160162  1  0  0  0
163164  1  0  0  0
163165  1  0  0  0
166167  1  0  0  0
166168  1  0  0  0
169170  1  0  0  0
169171  1  0  0  0
172173  1  0  0  0
172174  1  0  0  0
175176  1  0  0  0
175177  1  0  0  0
178179  1  0  0  0
178180  1  0  0  0
181182  1  0  0  0
181183  1  0  0  0
184185  1  0  0  0
184186  1  0  0  0
187188  1  0  0  0
187189  1  0  0  0
190191  1  0  0  0
190192  1  0  0  0
193194  1  0  0  0
193195  1  0  0  0
196197  1  0  0  0
196198  1  0  0  0
199200  1  0  0  0
199201  1  0  0  0
202203  1  0  0  0
202204  1  0  0  0
205206  1  0  0  0
205207  1  0  0  0
208209  1  0  0  0
208210  1  0  0  0
211212  1  0  0  0
211213  1  0  0  0
214215  1  0  0  0
214216  1  0  0  0
217218  1  0  0  0
217219  1  0  0  0
220221  1  0  0  0
220222  1  0  0  0
223224  1  0  0  0
223225  1  0  0  0
226227  1  0  0  0
226228  1  0  0  0
229230  1  0  0  0
229231  1  0  0  0
232233  1  0  0  0
232234  1  0  0  0
235236  1  0  0  0
235237  1  0  0  0
238239  1  0  0  0
238240  1  0  0  0
241242  1  0  0  0
241243  1  0  0  0
244245  1  0  0  0
244246  1  0  0  0
247248  1  0  0  0
247249  1  0  0  0
250251  1  0  0  0
250252  1  0  0  0
253254  1  0  0  0
253255  1  0  0  0
256257  1  0  0  0
256258  1  0  0  0
259260  1  0  0  0
259261  1  0  0  0
262263  1  0  0  0
262264  1  0  0  0
265266  1  0  0  0
265267  1  0  0  0
268269  1  0  0  0
268270  1  0  0  0
271272  1  0  0  0
271273  1  0  0  0
274275  1  0  0  0
274276  1  0  0  0
277278  1  0  0  0
277279  1  0  0  0
280281  1  0  0  0
280282  1  0  0  0
283284  1  0  0  0
283285  1  0  0  0
286287  1  0  0  0
286288  1  0  0  0
289290  1  0  0  0
289291  1  0  0  0
292293  1  0  0  0
292294  1  0  0  0
295296  1  0  0  0
295297  1  0  0  0
298299  1  0  0  0
298300  1  0  0  0
301302  1  0  0  0
301303  1  0  0  0
304305  1  0  0  0
304306  1  0  0  0
307308  1  0  0  0
307309  1  0  0  0
310311  1  0  0  0
310312  1  0  0  0
313314  1  0  0  0
313315  1  0  0  0
316317  1  0  0  0
316318  1  0  0  0
319320  1  0  0  0
319321  1  0  0  0
322323  1  0  0  0
322324  1  0  0  0
325326  1  0  0  0
325327  1  0  0  0
328329  1  0  0  0
328330  1  0  0  0
331332  1  0  0  0
331333  1  0  0  0
334335  1  0  0  0
334336  1  0  0  0
337338  1  0  0  0
337339  1  0  0  0
340341  1  0  0  0
340342  1  0  0  0
343344  1  0  0  0
343345  1  0  0  0
346347  1  0  0  0
346348  1  0  0  0
349350  1  0  0  0
349351  1  0  0  0
352353  1  0  0  0
352354  1  0  0  0
355356  1  0  0  0
355357  1  0  0  0
358359  1  0  0  0
358360  1  0  0  0
361362  1  0  0  0
361363  1  0  0  0
364365  1  0  0  0
364366  1  0  0  0
367368  1  0  0  0
367369  1  0  0  0
370371  1  0  0  0
370372  1  0  0  0
373374  1  0  0  0
373375  1  0  0  0
376377  1  0  0  0
376378  1  0  0  0
379380  1  0  0  0
379381  1  0  0  0
382383  1  0  0  0
382384  1  0  0  0
385386  1  0  0  0
385387  1  0  0  0
388389  1  0  0  0
388390  1  0  0  0
391392  1  0  0  0
391393  1  0  0  0
394395  1  0  0  0
394396  1  0  0  0
397398  1  0  0  0
397399  1  0  0  0
400401  1  0  0  0
400402  1  0  0  0
403404  1  0  0  0
403405  1  0  0  0
406407  1  0  0  0
406408  1  0  0  0
409410  1  0  0  0
409411  1  0  0  0
412413  1  0  0  0
412414  1  0  0  0
415416  1  0  0  0
415417  1  0  0  0
418419  1  0  0  0
418420  1  0  0  0
421422  1  0  0  0
421423  1  0  0  0
424425  1  0  0  0
424426  1  0  0  0
427428  1  0  0  0
427429  1  0  0  0
430431  1  0  0  0
430432  1  0  0  0
433434  1  0  0  0
433435  1  0  0  0
436437  1  0  0  0
436438  1  0  0  0
439440  1  0  0  0
439441  1  0  0  0
442443  1  0  0  0
442444  1  0  0  0
445446  1  0  0  0
445447  1  0  0  0
448449  1  0  0  0
448450  1  0  0  0
451452  1  0  0  0
451453  1  0  0  0
454455  1  0  0  0
454456  1  0  0  0
457458  1  0  0  0
457459  1  0  0  0
460461  1  0  0  0
460462  1  0  0  0
M  END
> <s_m_entry_id>
429

> <s_m_entry_name>
SZMAP_Mpro_7JST.6_merged154

> <s_m_Source_Path>
C:\Users\ifige\Documents\lab_projects\Mpro\szmap\7JST\SZMAP_7JST

> <s_m_Source_File>
SZMAP_Mpro_7JST.mae

> <i_m_Source_File_Index>
6

> <szmap_neut_diff_free_energy>
-7.965

> <szmap_vdw>
6.666

> <szmap_order>
0.99

> <szmap_probability>
0.946

$$$$
