7mhk_yellow_waters
                    3D
 Structure written by MMmdl.
399266  0  0  1  0            999 V2000
  -28.7440   -7.9425  -40.2710 O   0  0  0  0  0  0
  -29.6137   -8.3317  -40.1788 H   0  0  0  0  0  0
  -28.2654   -8.2383  -39.4966 H   0  0  0  0  0  0
  -28.7440   -7.9425  -40.2710 O   0  0  0  0  0  0
  -29.1332   -8.0347  -39.4013 H   0  0  0  0  0  0
  -29.0398   -8.7169  -40.7496 H   0  0  0  0  0  0
  -27.2440   -7.9425  -26.2710 O   0  0  0  0  0  0
  -26.3174   -8.1825  -26.2710 H   0  0  0  0  0  0
  -27.2440   -6.9853  -26.2710 H   0  0  0  0  0  0
  -27.2440   -7.9425  -26.2710 O   0  0  0  0  0  0
  -26.8548   -7.8503  -27.1407 H   0  0  0  0  0  0
  -26.9482   -7.1681  -25.7924 H   0  0  0  0  0  0
  -27.2440   -7.9425  -26.2710 O   0  0  0  0  0  0
  -26.8548   -7.8503  -25.4013 H   0  0  0  0  0  0
  -26.9482   -7.1681  -26.7496 H   0  0  0  0  0  0
  -24.2440   -6.9425  -30.2710 O   0  0  0  0  0  0
  -24.3362   -6.0728  -29.8818 H   0  0  0  0  0  0
  -25.0184   -7.4211  -29.9752 H   0  0  0  0  0  0
  -24.2440   -6.9425  -30.2710 O   0  0  0  0  0  0
  -24.0040   -6.9425  -29.3444 H   0  0  0  0  0  0
  -25.2012   -6.9425  -30.2710 H   0  0  0  0  0  0
  -12.7440   -6.9425  -24.7710 O   0  0  0  0  0  0
  -13.3737   -6.4050  -24.2905 H   0  0  0  0  0  0
  -13.2226   -7.2383  -25.5454 H   0  0  0  0  0  0
  -13.2440   -7.9425  -24.7710 O   0  0  0  0  0  0
  -13.6332   -7.8503  -25.6407 H   0  0  0  0  0  0
  -13.5398   -7.1681  -24.2924 H   0  0  0  0  0  0
  -19.7440   -6.9425  -30.7710 O   0  0  0  0  0  0
  -19.1143   -6.4050  -31.2515 H   0  0  0  0  0  0
  -19.2654   -7.2383  -29.9966 H   0  0  0  0  0  0
  -19.7440   -6.9425  -30.7710 O   0  0  0  0  0  0
  -19.6518   -7.8122  -31.1602 H   0  0  0  0  0  0
  -18.9696   -6.4639  -31.0668 H   0  0  0  0  0  0
  -15.2440  -10.9425  -27.2710 O   0  0  0  0  0  0
  -15.2440  -10.0159  -27.5110 H   0  0  0  0  0  0
  -15.2440  -10.9425  -26.3138 H   0  0  0  0  0  0
  -15.2440  -10.9425  -27.2710 O   0  0  0  0  0  0
  -15.3362  -10.0728  -27.6602 H   0  0  0  0  0  0
  -16.0184  -11.4211  -27.5668 H   0  0  0  0  0  0
  -15.2440  -10.9425  -27.2710 O   0  0  0  0  0  0
  -15.1518  -10.0728  -27.6602 H   0  0  0  0  0  0
  -14.4696  -11.4211  -27.5668 H   0  0  0  0  0  0
  -21.7440   -4.4425  -23.2710 O   0  0  0  0  0  0
  -21.2065   -3.9620  -23.9007 H   0  0  0  0  0  0
  -22.0398   -5.2169  -23.7496 H   0  0  0  0  0  0
  -21.7440   -4.4425  -23.2710 O   0  0  0  0  0  0
  -21.8362   -5.3122  -23.6602 H   0  0  0  0  0  0
  -22.5184   -3.9639  -23.5668 H   0  0  0  0  0  0
  -21.7440   -4.4425  -23.2710 O   0  0  0  0  0  0
  -22.6137   -4.8317  -23.3632 H   0  0  0  0  0  0
  -21.2654   -4.7383  -24.0454 H   0  0  0  0  0  0
  -27.2440   -2.4425  -26.7710 O   0  0  0  0  0  0
  -27.3362   -3.3122  -27.1602 H   0  0  0  0  0  0
  -28.0184   -1.9639  -27.0668 H   0  0  0  0  0  0
  -25.7440   -7.4425  -22.2710 O   0  0  0  0  0  0
  -26.3737   -6.9050  -21.7905 H   0  0  0  0  0  0
  -26.2226   -7.7383  -23.0454 H   0  0  0  0  0  0
  -25.7440   -7.4425  -22.2710 O   0  0  0  0  0  0
  -26.3737   -7.9800  -21.7905 H   0  0  0  0  0  0
  -26.2226   -7.1467  -23.0454 H   0  0  0  0  0  0
  -25.7440   -7.4425  -22.2710 O   0  0  0  0  0  0
  -26.3737   -7.9800  -22.7515 H   0  0  0  0  0  0
  -26.2226   -7.1467  -21.4966 H   0  0  0  0  0  0
  -25.7440   -7.4425  -22.2710 O   0  0  0  0  0  0
  -26.3737   -6.9050  -22.7515 H   0  0  0  0  0  0
  -26.2226   -7.7383  -21.4966 H   0  0  0  0  0  0
  -25.7440   -7.4425  -22.2710 O   0  0  0  0  0  0
  -25.8362   -6.5728  -22.6602 H   0  0  0  0  0  0
  -26.5184   -7.9211  -22.5668 H   0  0  0  0  0  0
  -12.7440   -5.4425  -18.2710 O   0  0  0  0  0  0
  -12.3548   -5.5347  -19.1407 H   0  0  0  0  0  0
  -12.4482   -6.2169  -17.7924 H   0  0  0  0  0  0
  -12.7440   -5.4425  -18.2710 O   0  0  0  0  0  0
  -12.1143   -5.9800  -18.7515 H   0  0  0  0  0  0
  -12.2654   -5.1467  -17.4966 H   0  0  0  0  0  0
  -12.7440   -5.4425  -18.2710 O   0  0  0  0  0  0
  -12.1143   -5.9800  -17.7905 H   0  0  0  0  0  0
  -12.2654   -5.1467  -19.0454 H   0  0  0  0  0  0
  -16.7440  -10.4425  -27.7710 O   0  0  0  0  0  0
  -17.2245   -9.8128  -28.3085 H   0  0  0  0  0  0
  -15.9696   -9.9639  -27.4752 H   0  0  0  0  0  0
  -16.7440  -10.4425  -27.7710 O   0  0  0  0  0  0
  -17.2245   -9.8128  -27.2335 H   0  0  0  0  0  0
  -15.9696   -9.9639  -28.0668 H   0  0  0  0  0  0
  -18.7440   -2.9425  -23.7710 O   0  0  0  0  0  0
  -18.6518   -3.8122  -24.1602 H   0  0  0  0  0  0
  -17.9696   -2.4639  -24.0668 H   0  0  0  0  0  0
  -27.2440   -4.4425  -20.2710 O   0  0  0  0  0  0
  -26.3174   -4.2025  -20.2710 H   0  0  0  0  0  0
  -27.2440   -5.3997  -20.2710 H   0  0  0  0  0  0
  -27.2440   -4.4425  -20.2710 O   0  0  0  0  0  0
  -27.1518   -5.3122  -20.6602 H   0  0  0  0  0  0
  -26.4696   -3.9639  -20.5668 H   0  0  0  0  0  0
  -27.2440   -4.4425  -20.2710 O   0  0  0  0  0  0
  -26.8548   -4.5347  -21.1407 H   0  0  0  0  0  0
  -26.9482   -5.2169  -19.7924 H   0  0  0  0  0  0
  -15.2440   -9.9425  -25.7710 O   0  0  0  0  0  0
  -15.2440   -9.0159  -25.5310 H   0  0  0  0  0  0
  -15.2440   -9.9425  -26.7282 H   0  0  0  0  0  0
  -15.2440   -9.9425  -25.7710 O   0  0  0  0  0  0
  -14.7065  -10.4230  -26.4007 H   0  0  0  0  0  0
  -15.5398   -9.1681  -26.2496 H   0  0  0  0  0  0
  -17.2440   -9.4425  -26.7710 O   0  0  0  0  0  0
  -16.6143   -8.9050  -27.2515 H   0  0  0  0  0  0
  -16.7654   -9.7383  -25.9966 H   0  0  0  0  0  0
  -17.2440   -9.4425  -26.7710 O   0  0  0  0  0  0
  -17.1518  -10.3122  -27.1602 H   0  0  0  0  0  0
  -16.4696   -8.9639  -27.0668 H   0  0  0  0  0  0
  -17.2440   -9.4425  -26.7710 O   0  0  0  0  0  0
  -16.3743   -9.0533  -26.8632 H   0  0  0  0  0  0
  -17.7226   -9.1467  -27.5454 H   0  0  0  0  0  0
  -16.2440   -9.4425  -25.7710 O   0  0  0  0  0  0
  -15.8548   -9.3503  -26.6407 H   0  0  0  0  0  0
  -15.9482   -8.6681  -25.2924 H   0  0  0  0  0  0
  -16.2440   -9.4425  -25.7710 O   0  0  0  0  0  0
  -17.1137   -9.0533  -25.8632 H   0  0  0  0  0  0
  -15.7654   -9.1467  -26.5454 H   0  0  0  0  0  0
  -23.2440   -8.9425  -19.2710 O   0  0  0  0  0  0
  -24.1137   -9.3317  -19.1788 H   0  0  0  0  0  0
  -22.7654   -9.2383  -18.4966 H   0  0  0  0  0  0
  -23.2440   -8.9425  -19.2710 O   0  0  0  0  0  0
  -23.2440   -9.8691  -19.5110 H   0  0  0  0  0  0
  -23.2440   -8.9425  -18.3138 H   0  0  0  0  0  0
  -23.2440   -8.9425  -19.2710 O   0  0  0  0  0  0
  -23.7815   -8.4620  -18.6413 H   0  0  0  0  0  0
  -22.9482   -9.7169  -18.7924 H   0  0  0  0  0  0
  -23.2440   -8.9425  -19.2710 O   0  0  0  0  0  0
  -22.7065   -8.4620  -18.6413 H   0  0  0  0  0  0
  -23.5398   -9.7169  -18.7924 H   0  0  0  0  0  0
  -15.7440  -10.4425  -29.2710 O   0  0  0  0  0  0
  -15.2635   -9.8128  -28.7335 H   0  0  0  0  0  0
  -16.5184   -9.9639  -29.5668 H   0  0  0  0  0  0
  -15.7440  -10.4425  -29.2710 O   0  0  0  0  0  0
  -16.2815  -10.9230  -28.6413 H   0  0  0  0  0  0
  -15.4482   -9.6681  -28.7924 H   0  0  0  0  0  0
  -15.7440  -10.4425  -29.2710 O   0  0  0  0  0  0
  -15.3548  -10.3503  -30.1407 H   0  0  0  0  0  0
  -15.4482   -9.6681  -28.7924 H   0  0  0  0  0  0
  -25.7440    2.5575  -37.2710 O   0  0  0  0  0  0
  -25.3548    2.6497  -36.4013 H   0  0  0  0  0  0
  -25.4482    3.3319  -37.7496 H   0  0  0  0  0  0
  -25.7440    2.5575  -37.2710 O   0  0  0  0  0  0
  -25.2065    3.0380  -36.6413 H   0  0  0  0  0  0
  -26.0398    1.7831  -36.7924 H   0  0  0  0  0  0
  -22.2440   -9.9425  -40.2710 O   0  0  0  0  0  0
  -22.6332  -10.0347  -41.1407 H   0  0  0  0  0  0
  -22.5398  -10.7169  -39.7924 H   0  0  0  0  0  0
  -22.2440   -9.9425  -40.2710 O   0  0  0  0  0  0
  -22.8737  -10.4800  -39.7905 H   0  0  0  0  0  0
  -22.7226   -9.6467  -41.0454 H   0  0  0  0  0  0
  -22.2440   -9.9425  -40.2710 O   0  0  0  0  0  0
  -23.1706   -9.7025  -40.2710 H   0  0  0  0  0  0
  -22.2440  -10.8997  -40.2710 H   0  0  0  0  0  0
  -22.2440   -9.9425  -40.2710 O   0  0  0  0  0  0
  -22.3362  -10.8122  -40.6602 H   0  0  0  0  0  0
  -23.0184   -9.4639  -40.5668 H   0  0  0  0  0  0
  -30.2440   -5.9425  -22.7710 O   0  0  0  0  0  0
  -30.6332   -5.8503  -21.9013 H   0  0  0  0  0  0
  -30.5398   -5.1681  -23.2496 H   0  0  0  0  0  0
  -19.2440   -4.9425  -28.2710 O   0  0  0  0  0  0
  -19.7815   -4.4620  -27.6413 H   0  0  0  0  0  0
  -18.9482   -5.7169  -27.7924 H   0  0  0  0  0  0
  -19.2440   -4.9425  -28.2710 O   0  0  0  0  0  0
  -20.1137   -5.3317  -28.1788 H   0  0  0  0  0  0
  -18.7654   -5.2383  -27.4966 H   0  0  0  0  0  0
  -19.2440   -4.9425  -28.2710 O   0  0  0  0  0  0
  -19.2440   -5.8691  -28.5110 H   0  0  0  0  0  0
  -19.2440   -4.9425  -27.3138 H   0  0  0  0  0  0
  -19.2440   -4.9425  -28.2710 O   0  0  0  0  0  0
  -19.0040   -4.9425  -27.3444 H   0  0  0  0  0  0
  -20.2012   -4.9425  -28.2710 H   0  0  0  0  0  0
  -19.2440   -4.9425  -28.2710 O   0  0  0  0  0  0
  -19.3362   -5.8122  -27.8818 H   0  0  0  0  0  0
  -20.0184   -4.4639  -27.9752 H   0  0  0  0  0  0
  -22.2440   -2.4425  -28.2710 O   0  0  0  0  0  0
  -22.7245   -1.8128  -28.8085 H   0  0  0  0  0  0
  -21.4696   -1.9639  -27.9752 H   0  0  0  0  0  0
  -22.2440   -2.4425  -28.2710 O   0  0  0  0  0  0
  -21.3174   -2.6825  -28.2710 H   0  0  0  0  0  0
  -22.2440   -1.4853  -28.2710 H   0  0  0  0  0  0
  -22.7440   -6.9425  -25.7710 O   0  0  0  0  0  0
  -23.6137   -7.3317  -25.6788 H   0  0  0  0  0  0
  -22.2654   -7.2383  -24.9966 H   0  0  0  0  0  0
  -22.7440   -6.9425  -25.7710 O   0  0  0  0  0  0
  -22.2065   -7.4230  -25.1413 H   0  0  0  0  0  0
  -23.0398   -6.1681  -25.2924 H   0  0  0  0  0  0
  -22.7440   -6.9425  -25.7710 O   0  0  0  0  0  0
  -22.3548   -7.0347  -24.9013 H   0  0  0  0  0  0
  -22.4482   -7.7169  -26.2496 H   0  0  0  0  0  0
  -15.7440   -6.4425  -25.2710 O   0  0  0  0  0  0
  -15.1143   -6.9800  -25.7515 H   0  0  0  0  0  0
  -15.2654   -6.1467  -24.4966 H   0  0  0  0  0  0
  -30.2440    1.0575  -39.2710 O   0  0  0  0  0  0
  -30.6332    0.9653  -38.4013 H   0  0  0  0  0  0
  -30.5398    0.2831  -39.7496 H   0  0  0  0  0  0
  -30.2440    1.0575  -39.2710 O   0  0  0  0  0  0
  -30.7815    0.5770  -38.6413 H   0  0  0  0  0  0
  -29.9482    1.8319  -38.7924 H   0  0  0  0  0  0
  -30.2440    1.0575  -39.2710 O   0  0  0  0  0  0
  -29.3743    0.6683  -39.1788 H   0  0  0  0  0  0
  -30.7226    0.7617  -38.4966 H   0  0  0  0  0  0
  -30.2440    1.0575  -39.2710 O   0  0  0  0  0  0
  -30.7245    0.4278  -38.7335 H   0  0  0  0  0  0
  -29.4696    0.5789  -39.5668 H   0  0  0  0  0  0
  -30.2440    1.0575  -39.2710 O   0  0  0  0  0  0
  -29.7065    1.5380  -38.6413 H   0  0  0  0  0  0
  -30.5398    0.2831  -38.7924 H   0  0  0  0  0  0
  -30.7440    0.0575  -39.7710 O   0  0  0  0  0  0
  -30.9840    0.0575  -38.8444 H   0  0  0  0  0  0
  -29.7868    0.0575  -39.7710 H   0  0  0  0  0  0
  -30.7440    0.0575  -39.7710 O   0  0  0  0  0  0
  -30.7440   -0.8691  -40.0110 H   0  0  0  0  0  0
  -30.7440    0.0575  -38.8138 H   0  0  0  0  0  0
  -30.7440    0.0575  -39.7710 O   0  0  0  0  0  0
  -31.1332   -0.0347  -38.9013 H   0  0  0  0  0  0
  -31.0398   -0.7169  -40.2496 H   0  0  0  0  0  0
  -30.7440    0.0575  -39.7710 O   0  0  0  0  0  0
  -31.1332    0.1497  -38.9013 H   0  0  0  0  0  0
  -31.0398    0.8319  -40.2496 H   0  0  0  0  0  0
  -21.2440   -7.4425  -25.7710 O   0  0  0  0  0  0
  -21.6332   -7.5347  -24.9013 H   0  0  0  0  0  0
  -21.5398   -8.2169  -26.2496 H   0  0  0  0  0  0
  -21.2440   -7.4425  -25.7710 O   0  0  0  0  0  0
  -21.6332   -7.3503  -24.9013 H   0  0  0  0  0  0
  -21.5398   -6.6681  -26.2496 H   0  0  0  0  0  0
  -21.2440   -7.4425  -25.7710 O   0  0  0  0  0  0
  -21.4840   -7.4425  -24.8444 H   0  0  0  0  0  0
  -20.2868   -7.4425  -25.7710 H   0  0  0  0  0  0
  -21.2440   -7.4425  -25.7710 O   0  0  0  0  0  0
  -20.3743   -7.8317  -25.6788 H   0  0  0  0  0  0
  -21.7226   -7.7383  -24.9966 H   0  0  0  0  0  0
  -21.2440   -7.4425  -25.7710 O   0  0  0  0  0  0
  -21.8737   -6.9050  -26.2515 H   0  0  0  0  0  0
  -21.7226   -7.7383  -24.9966 H   0  0  0  0  0  0
  -27.2440   -9.4425  -31.2710 O   0  0  0  0  0  0
  -27.3362  -10.3122  -30.8818 H   0  0  0  0  0  0
  -28.0184   -8.9639  -30.9752 H   0  0  0  0  0  0
  -27.2440   -9.4425  -31.2710 O   0  0  0  0  0  0
  -27.8737   -8.9050  -30.7905 H   0  0  0  0  0  0
  -27.7226   -9.7383  -32.0454 H   0  0  0  0  0  0
  -27.2440   -9.4425  -31.2710 O   0  0  0  0  0  0
  -28.1137   -9.0533  -31.1788 H   0  0  0  0  0  0
  -26.7654   -9.1467  -30.4966 H   0  0  0  0  0  0
  -22.7440   -1.4425  -29.7710 O   0  0  0  0  0  0
  -22.2065   -0.9620  -29.1413 H   0  0  0  0  0  0
  -23.0398   -2.2169  -29.2924 H   0  0  0  0  0  0
  -30.7440    2.5575  -37.7710 O   0  0  0  0  0  0
  -30.7440    1.6309  -37.5310 H   0  0  0  0  0  0
  -30.7440    2.5575  -38.7282 H   0  0  0  0  0  0
  -29.2440    1.0575  -38.2710 O   0  0  0  0  0  0
  -29.8737    0.5200  -37.7905 H   0  0  0  0  0  0
  -29.7226    1.3533  -39.0454 H   0  0  0  0  0  0
  -29.2440    1.0575  -38.2710 O   0  0  0  0  0  0
  -28.7635    0.4278  -38.8085 H   0  0  0  0  0  0
  -30.0184    0.5789  -37.9752 H   0  0  0  0  0  0
  -29.2440    1.0575  -38.2710 O   0  0  0  0  0  0
  -29.3362    1.9272  -37.8818 H   0  0  0  0  0  0
  -30.0184    0.5789  -37.9752 H   0  0  0  0  0  0
  -30.2440  -10.4425  -24.2710 O   0  0  0  0  0  0
  -29.7065   -9.9620  -24.9007 H   0  0  0  0  0  0
  -30.5398  -11.2169  -24.7496 H   0  0  0  0  0  0
  -30.2440  -10.4425  -24.2710 O   0  0  0  0  0  0
  -30.7815  -10.9230  -24.9007 H   0  0  0  0  0  0
  -29.9482   -9.6681  -24.7496 H   0  0  0  0  0  0
  -30.2440  -10.4425  -24.2710 O   0  0  0  0  0  0
  -31.1137  -10.0533  -24.3632 H   0  0  0  0  0  0
  -29.7654  -10.1467  -25.0454 H   0  0  0  0  0  0
  -30.2440  -10.4425  -24.2710 O   0  0  0  0  0  0
  -29.7635   -9.8128  -24.8085 H   0  0  0  0  0  0
  -31.0184   -9.9639  -23.9752 H   0  0  0  0  0  0
  -30.2440  -10.4425  -24.2710 O   0  0  0  0  0  0
  -29.8548  -10.3503  -25.1407 H   0  0  0  0  0  0
  -29.9482   -9.6681  -23.7924 H   0  0  0  0  0  0
  -29.2440   -1.4425  -40.2710 O   0  0  0  0  0  0
  -30.1706   -1.2025  -40.2710 H   0  0  0  0  0  0
  -29.2440   -2.3997  -40.2710 H   0  0  0  0  0  0
  -29.2440   -1.4425  -40.2710 O   0  0  0  0  0  0
  -29.6332   -1.5347  -39.4013 H   0  0  0  0  0  0
  -29.5398   -2.2169  -40.7496 H   0  0  0  0  0  0
  -29.2440   -1.4425  -40.2710 O   0  0  0  0  0  0
  -28.7635   -2.0722  -40.8085 H   0  0  0  0  0  0
  -30.0184   -1.9211  -39.9752 H   0  0  0  0  0  0
  -18.2440   -9.9425  -21.2710 O   0  0  0  0  0  0
  -18.7245  -10.5722  -20.7335 H   0  0  0  0  0  0
  -17.4696  -10.4211  -21.5668 H   0  0  0  0  0  0
  -18.2440   -9.9425  -21.2710 O   0  0  0  0  0  0
  -17.7635  -10.5722  -21.8085 H   0  0  0  0  0  0
  -19.0184  -10.4211  -20.9752 H   0  0  0  0  0  0
  -18.2440   -9.9425  -21.2710 O   0  0  0  0  0  0
  -17.8548  -10.0347  -22.1407 H   0  0  0  0  0  0
  -17.9482  -10.7169  -20.7924 H   0  0  0  0  0  0
  -18.2440   -9.9425  -21.2710 O   0  0  0  0  0  0
  -18.6332  -10.0347  -20.4013 H   0  0  0  0  0  0
  -18.5398  -10.7169  -21.7496 H   0  0  0  0  0  0
  -18.2440   -9.9425  -21.2710 O   0  0  0  0  0  0
  -18.7245  -10.5722  -21.8085 H   0  0  0  0  0  0
  -17.4696  -10.4211  -20.9752 H   0  0  0  0  0  0
  -26.2440   -7.9425  -38.2710 O   0  0  0  0  0  0
  -27.1137   -7.5533  -38.1788 H   0  0  0  0  0  0
  -25.7654   -7.6467  -37.4966 H   0  0  0  0  0  0
  -17.7440   -9.4425  -22.2710 O   0  0  0  0  0  0
  -16.8743   -9.8317  -22.3632 H   0  0  0  0  0  0
  -18.2226   -9.7383  -23.0454 H   0  0  0  0  0  0
  -17.7440   -9.4425  -22.2710 O   0  0  0  0  0  0
  -17.3548   -9.5347  -23.1407 H   0  0  0  0  0  0
  -17.4482  -10.2169  -21.7924 H   0  0  0  0  0  0
  -17.7440   -9.4425  -22.2710 O   0  0  0  0  0  0
  -17.7440  -10.3691  -22.0310 H   0  0  0  0  0  0
  -17.7440   -9.4425  -23.2282 H   0  0  0  0  0  0
  -17.7440   -9.4425  -22.2710 O   0  0  0  0  0  0
  -17.2065   -8.9620  -22.9007 H   0  0  0  0  0  0
  -18.0398  -10.2169  -22.7496 H   0  0  0  0  0  0
  -18.7440   -8.4425  -33.2710 O   0  0  0  0  0  0
  -18.2635   -7.8128  -32.7335 H   0  0  0  0  0  0
  -19.5184   -7.9639  -33.5668 H   0  0  0  0  0  0
  -18.7440   -8.4425  -33.2710 O   0  0  0  0  0  0
  -19.6137   -8.0533  -33.1788 H   0  0  0  0  0  0
  -18.2654   -8.1467  -32.4966 H   0  0  0  0  0  0
  -20.2440   -5.9425  -35.7710 O   0  0  0  0  0  0
  -19.8548   -6.0347  -36.6407 H   0  0  0  0  0  0
  -19.9482   -6.7169  -35.2924 H   0  0  0  0  0  0
  -31.2440   -8.4425  -24.7710 O   0  0  0  0  0  0
  -31.7245   -9.0722  -24.2335 H   0  0  0  0  0  0
  -30.4696   -8.9211  -25.0668 H   0  0  0  0  0  0
  -31.2440   -8.4425  -24.7710 O   0  0  0  0  0  0
  -30.6143   -8.9800  -25.2515 H   0  0  0  0  0  0
  -30.7654   -8.1467  -23.9966 H   0  0  0  0  0  0
  -19.2440   -5.9425  -33.7710 O   0  0  0  0  0  0
  -20.1137   -6.3317  -33.6788 H   0  0  0  0  0  0
  -18.7654   -6.2383  -32.9966 H   0  0  0  0  0  0
  -16.7440   -3.9425  -25.7710 O   0  0  0  0  0  0
  -15.8174   -4.1825  -25.7710 H   0  0  0  0  0  0
  -16.7440   -2.9853  -25.7710 H   0  0  0  0  0  0
  -16.7440   -3.9425  -25.7710 O   0  0  0  0  0  0
  -16.7440   -3.0159  -26.0110 H   0  0  0  0  0  0
  -16.7440   -3.9425  -24.8138 H   0  0  0  0  0  0
  -24.7440   -9.9425  -37.7710 O   0  0  0  0  0  0
  -24.6518   -9.0728  -37.3818 H   0  0  0  0  0  0
  -23.9696  -10.4211  -37.4752 H   0  0  0  0  0  0
  -24.7440   -9.9425  -37.7710 O   0  0  0  0  0  0
  -24.2065  -10.4230  -37.1413 H   0  0  0  0  0  0
  -25.0398   -9.1681  -37.2924 H   0  0  0  0  0  0
  -24.7440   -9.9425  -37.7710 O   0  0  0  0  0  0
  -24.2635   -9.3128  -37.2335 H   0  0  0  0  0  0
  -25.5184   -9.4639  -38.0668 H   0  0  0  0  0  0
  -24.7440   -3.4425  -21.2710 O   0  0  0  0  0  0
  -25.1332   -3.3503  -20.4013 H   0  0  0  0  0  0
  -25.0398   -2.6681  -21.7496 H   0  0  0  0  0  0
  -24.7440   -3.4425  -21.2710 O   0  0  0  0  0  0
  -25.2815   -2.9620  -20.6413 H   0  0  0  0  0  0
  -24.4482   -4.2169  -20.7924 H   0  0  0  0  0  0
  -24.7440   -3.4425  -21.2710 O   0  0  0  0  0  0
  -24.8362   -2.5728  -20.8818 H   0  0  0  0  0  0
  -25.5184   -3.9211  -20.9752 H   0  0  0  0  0  0
  -29.2440   -0.4425  -38.7710 O   0  0  0  0  0  0
  -29.8737   -0.9800  -39.2515 H   0  0  0  0  0  0
  -29.7226   -0.1467  -37.9966 H   0  0  0  0  0  0
  -29.2440   -0.4425  -38.7710 O   0  0  0  0  0  0
  -29.8737    0.0950  -38.2905 H   0  0  0  0  0  0
  -29.7226   -0.7383  -39.5454 H   0  0  0  0  0  0
  -20.2440   -4.4425  -35.2710 O   0  0  0  0  0  0
  -21.1137   -4.0533  -35.1788 H   0  0  0  0  0  0
  -19.7654   -4.1467  -34.4966 H   0  0  0  0  0  0
  -19.7440   -9.9425  -33.7710 O   0  0  0  0  0  0
  -20.6706  -10.1825  -33.7710 H   0  0  0  0  0  0
  -19.7440   -8.9853  -33.7710 H   0  0  0  0  0  0
  -19.7440   -9.9425  -33.7710 O   0  0  0  0  0  0
  -20.1332   -9.8503  -34.6407 H   0  0  0  0  0  0
  -20.0398   -9.1681  -33.2924 H   0  0  0  0  0  0
  -19.7440   -9.9425  -33.7710 O   0  0  0  0  0  0
  -19.2635   -9.3128  -33.2335 H   0  0  0  0  0  0
  -20.5184   -9.4639  -34.0668 H   0  0  0  0  0  0
  -23.2440   -8.9425  -25.2710 O   0  0  0  0  0  0
  -23.7815   -9.4230  -24.6413 H   0  0  0  0  0  0
  -22.9482   -8.1681  -24.7924 H   0  0  0  0  0  0
  -23.2440   -8.9425  -25.2710 O   0  0  0  0  0  0
  -22.7635   -8.3128  -24.7335 H   0  0  0  0  0  0
  -24.0184   -8.4639  -25.5668 H   0  0  0  0  0  0
  -23.2440   -8.9425  -25.2710 O   0  0  0  0  0  0
  -22.8548   -8.8503  -26.1407 H   0  0  0  0  0  0
  -22.9482   -8.1681  -24.7924 H   0  0  0  0  0  0
  -23.2440   -8.9425  -25.2710 O   0  0  0  0  0  0
  -23.1518   -8.0728  -24.8818 H   0  0  0  0  0  0
  -22.4696   -9.4211  -24.9752 H   0  0  0  0  0  0
  -23.2440   -8.9425  -25.2710 O   0  0  0  0  0  0
  -22.6143   -8.4050  -24.7905 H   0  0  0  0  0  0
  -22.7654   -9.2383  -26.0454 H   0  0  0  0  0  0
  -20.2440   -9.4425  -35.2710 O   0  0  0  0  0  0
  -19.7065   -9.9230  -34.6413 H   0  0  0  0  0  0
  -20.5398   -8.6681  -34.7924 H   0  0  0  0  0  0
  -20.2440   -9.4425  -35.2710 O   0  0  0  0  0  0
  -20.6332   -9.3503  -36.1407 H   0  0  0  0  0  0
  -20.5398   -8.6681  -34.7924 H   0  0  0  0  0  0
  -20.2440   -9.4425  -35.2710 O   0  0  0  0  0  0
  -20.3362   -8.5728  -34.8818 H   0  0  0  0  0  0
  -21.0184   -9.9211  -34.9752 H   0  0  0  0  0  0
  -20.2440   -7.9425  -35.7710 O   0  0  0  0  0  0
  -20.2440   -7.0159  -36.0110 H   0  0  0  0  0  0
  -20.2440   -7.9425  -34.8138 H   0  0  0  0  0  0
  1  2  1  0  0  0
  1  3  1  0  0  0
  4  5  1  0  0  0
  4  6  1  0  0  0
  7  8  1  0  0  0
  7  9  1  0  0  0
 10 11  1  0  0  0
 10 12  1  0  0  0
 13 14  1  0  0  0
 13 15  1  0  0  0
 16 17  1  0  0  0
 16 18  1  0  0  0
 19 20  1  0  0  0
 19 21  1  0  0  0
 22 23  1  0  0  0
 22 24  1  0  0  0
 25 26  1  0  0  0
 25 27  1  0  0  0
 28 29  1  0  0  0
 28 30  1  0  0  0
 31 32  1  0  0  0
 31 33  1  0  0  0
 34 35  1  0  0  0
 34 36  1  0  0  0
 37 38  1  0  0  0
 37 39  1  0  0  0
 40 41  1  0  0  0
 40 42  1  0  0  0
 43 44  1  0  0  0
 43 45  1  0  0  0
 46 47  1  0  0  0
 46 48  1  0  0  0
 49 50  1  0  0  0
 49 51  1  0  0  0
 52 53  1  0  0  0
 52 54  1  0  0  0
 55 56  1  0  0  0
 55 57  1  0  0  0
 58 59  1  0  0  0
 58 60  1  0  0  0
 61 62  1  0  0  0
 61 63  1  0  0  0
 64 65  1  0  0  0
 64 66  1  0  0  0
 67 68  1  0  0  0
 67 69  1  0  0  0
 70 71  1  0  0  0
 70 72  1  0  0  0
 73 74  1  0  0  0
 73 75  1  0  0  0
 76 77  1  0  0  0
 76 78  1  0  0  0
 79 80  1  0  0  0
 79 81  1  0  0  0
 82 83  1  0  0  0
 82 84  1  0  0  0
 85 86  1  0  0  0
 85 87  1  0  0  0
 88 89  1  0  0  0
 88 90  1  0  0  0
 91 92  1  0  0  0
 91 93  1  0  0  0
 94 95  1  0  0  0
 94 96  1  0  0  0
 97 98  1  0  0  0
 97 99  1  0  0  0
100101  1  0  0  0
100102  1  0  0  0
103104  1  0  0  0
103105  1  0  0  0
106107  1  0  0  0
106108  1  0  0  0
109110  1  0  0  0
109111  1  0  0  0
112113  1  0  0  0
112114  1  0  0  0
115116  1  0  0  0
115117  1  0  0  0
118119  1  0  0  0
118120  1  0  0  0
121122  1  0  0  0
121123  1  0  0  0
124125  1  0  0  0
124126  1  0  0  0
127128  1  0  0  0
127129  1  0  0  0
130131  1  0  0  0
130132  1  0  0  0
133134  1  0  0  0
133135  1  0  0  0
136137  1  0  0  0
136138  1  0  0  0
139140  1  0  0  0
139141  1  0  0  0
142143  1  0  0  0
142144  1  0  0  0
145146  1  0  0  0
145147  1  0  0  0
148149  1  0  0  0
148150  1  0  0  0
151152  1  0  0  0
151153  1  0  0  0
154155  1  0  0  0
154156  1  0  0  0
157158  1  0  0  0
157159  1  0  0  0
160161  1  0  0  0
160162  1  0  0  0
163164  1  0  0  0
163165  1  0  0  0
166167  1  0  0  0
166168  1  0  0  0
169170  1  0  0  0
169171  1  0  0  0
172173  1  0  0  0
172174  1  0  0  0
175176  1  0  0  0
175177  1  0  0  0
178179  1  0  0  0
178180  1  0  0  0
181182  1  0  0  0
181183  1  0  0  0
184185  1  0  0  0
184186  1  0  0  0
187188  1  0  0  0
187189  1  0  0  0
190191  1  0  0  0
190192  1  0  0  0
193194  1  0  0  0
193195  1  0  0  0
196197  1  0  0  0
196198  1  0  0  0
199200  1  0  0  0
199201  1  0  0  0
202203  1  0  0  0
202204  1  0  0  0
205206  1  0  0  0
205207  1  0  0  0
208209  1  0  0  0
208210  1  0  0  0
211212  1  0  0  0
211213  1  0  0  0
214215  1  0  0  0
214216  1  0  0  0
217218  1  0  0  0
217219  1  0  0  0
220221  1  0  0  0
220222  1  0  0  0
223224  1  0  0  0
223225  1  0  0  0
226227  1  0  0  0
226228  1  0  0  0
229230  1  0  0  0
229231  1  0  0  0
232233  1  0  0  0
232234  1  0  0  0
235236  1  0  0  0
235237  1  0  0  0
238239  1  0  0  0
238240  1  0  0  0
241242  1  0  0  0
241243  1  0  0  0
244245  1  0  0  0
244246  1  0  0  0
247248  1  0  0  0
247249  1  0  0  0
250251  1  0  0  0
250252  1  0  0  0
253254  1  0  0  0
253255  1  0  0  0
256257  1  0  0  0
256258  1  0  0  0
259260  1  0  0  0
259261  1  0  0  0
262263  1  0  0  0
262264  1  0  0  0
265266  1  0  0  0
265267  1  0  0  0
268269  1  0  0  0
268270  1  0  0  0
271272  1  0  0  0
271273  1  0  0  0
274275  1  0  0  0
274276  1  0  0  0
277278  1  0  0  0
277279  1  0  0  0
280281  1  0  0  0
280282  1  0  0  0
283284  1  0  0  0
283285  1  0  0  0
286287  1  0  0  0
286288  1  0  0  0
289290  1  0  0  0
289291  1  0  0  0
292293  1  0  0  0
292294  1  0  0  0
295296  1  0  0  0
295297  1  0  0  0
298299  1  0  0  0
298300  1  0  0  0
301302  1  0  0  0
301303  1  0  0  0
304305  1  0  0  0
304306  1  0  0  0
307308  1  0  0  0
307309  1  0  0  0
310311  1  0  0  0
310312  1  0  0  0
313314  1  0  0  0
313315  1  0  0  0
316317  1  0  0  0
316318  1  0  0  0
319320  1  0  0  0
319321  1  0  0  0
322323  1  0  0  0
322324  1  0  0  0
325326  1  0  0  0
325327  1  0  0  0
328329  1  0  0  0
328330  1  0  0  0
331332  1  0  0  0
331333  1  0  0  0
334335  1  0  0  0
334336  1  0  0  0
337338  1  0  0  0
337339  1  0  0  0
340341  1  0  0  0
340342  1  0  0  0
343344  1  0  0  0
343345  1  0  0  0
346347  1  0  0  0
346348  1  0  0  0
349350  1  0  0  0
349351  1  0  0  0
352353  1  0  0  0
352354  1  0  0  0
355356  1  0  0  0
355357  1  0  0  0
358359  1  0  0  0
358360  1  0  0  0
361362  1  0  0  0
361363  1  0  0  0
364365  1  0  0  0
364366  1  0  0  0
367368  1  0  0  0
367369  1  0  0  0
370371  1  0  0  0
370372  1  0  0  0
373374  1  0  0  0
373375  1  0  0  0
376377  1  0  0  0
376378  1  0  0  0
379380  1  0  0  0
379381  1  0  0  0
382383  1  0  0  0
382384  1  0  0  0
385386  1  0  0  0
385387  1  0  0  0
388389  1  0  0  0
388390  1  0  0  0
391392  1  0  0  0
391393  1  0  0  0
394395  1  0  0  0
394396  1  0  0  0
397398  1  0  0  0
397399  1  0  0  0
M  END
> <s_m_entry_id>
3982

> <s_m_entry_name>
SZMAP_Mpro_7MHK.6_merged133

> <s_m_Source_Path>
C:\Users\ifige\Documents\lab_projects\Mpro\szmap\7MHK\SZMAP_7MHK

> <s_m_Source_File>
SZMAP_Mpro_7MHK.mae

> <i_m_Source_File_Index>
6

> <szmap_neut_diff_free_energy>
-8.211

> <szmap_vdw>
8.744

> <szmap_order>
0.388

> <szmap_probability>
0.156

$$$$
