7uu7_yellow_waters
                    3D
 Structure written by MMmdl.
489326  0  0  1  0            999 V2000
  -27.7440    1.5575  -38.2710 O   0  0  0  0  0  0
  -27.2635    2.1872  -37.7335 H   0  0  0  0  0  0
  -28.5184    2.0361  -38.5668 H   0  0  0  0  0  0
  -27.7440    1.5575  -38.2710 O   0  0  0  0  0  0
  -27.8362    2.4272  -37.8818 H   0  0  0  0  0  0
  -28.5184    1.0789  -37.9752 H   0  0  0  0  0  0
  -27.7440    1.5575  -38.2710 O   0  0  0  0  0  0
  -28.2815    1.0770  -37.6413 H   0  0  0  0  0  0
  -27.4482    2.3319  -37.7924 H   0  0  0  0  0  0
  -12.7440   -6.4425  -24.7710 O   0  0  0  0  0  0
  -13.1332   -6.5347  -23.9013 H   0  0  0  0  0  0
  -13.0398   -7.2169  -25.2496 H   0  0  0  0  0  0
  -12.7440   -7.9425  -24.7710 O   0  0  0  0  0  0
  -13.1332   -7.8503  -25.6407 H   0  0  0  0  0  0
  -13.0398   -7.1681  -24.2924 H   0  0  0  0  0  0
  -23.7440  -11.4425  -33.7710 O   0  0  0  0  0  0
  -23.2635  -12.0722  -33.2335 H   0  0  0  0  0  0
  -24.5184  -11.9211  -34.0668 H   0  0  0  0  0  0
  -23.7440  -11.4425  -33.7710 O   0  0  0  0  0  0
  -24.1332  -11.5347  -32.9013 H   0  0  0  0  0  0
  -24.0398  -12.2169  -34.2496 H   0  0  0  0  0  0
  -23.7440  -11.4425  -33.7710 O   0  0  0  0  0  0
  -23.2635  -12.0722  -34.3085 H   0  0  0  0  0  0
  -24.5184  -11.9211  -33.4752 H   0  0  0  0  0  0
  -23.7440  -11.4425  -33.7710 O   0  0  0  0  0  0
  -24.6137  -11.8317  -33.6788 H   0  0  0  0  0  0
  -23.2654  -11.7383  -32.9966 H   0  0  0  0  0  0
  -14.7440   -5.9425  -25.2710 O   0  0  0  0  0  0
  -14.3548   -6.0347  -24.4013 H   0  0  0  0  0  0
  -14.4482   -6.7169  -25.7496 H   0  0  0  0  0  0
  -18.7440   -2.9425  -23.2710 O   0  0  0  0  0  0
  -18.7440   -3.8691  -23.0310 H   0  0  0  0  0  0
  -18.7440   -2.9425  -24.2282 H   0  0  0  0  0  0
  -18.7440   -2.9425  -23.2710 O   0  0  0  0  0  0
  -18.3548   -3.0347  -24.1407 H   0  0  0  0  0  0
  -18.4482   -3.7169  -22.7924 H   0  0  0  0  0  0
  -15.2440  -11.4425  -28.7710 O   0  0  0  0  0  0
  -14.8548  -11.3503  -29.6407 H   0  0  0  0  0  0
  -14.9482  -10.6681  -28.2924 H   0  0  0  0  0  0
  -15.2440  -11.4425  -28.7710 O   0  0  0  0  0  0
  -14.7635  -10.8128  -28.2335 H   0  0  0  0  0  0
  -16.0184  -10.9639  -29.0668 H   0  0  0  0  0  0
  -13.7440  -11.4425  -27.2710 O   0  0  0  0  0  0
  -14.2245  -10.8128  -27.8085 H   0  0  0  0  0  0
  -12.9696  -10.9639  -26.9752 H   0  0  0  0  0  0
  -13.7440  -11.4425  -27.2710 O   0  0  0  0  0  0
  -14.1332  -11.3503  -26.4013 H   0  0  0  0  0  0
  -14.0398  -10.6681  -27.7496 H   0  0  0  0  0  0
  -22.2440  -10.9425  -20.2710 O   0  0  0  0  0  0
  -22.7815  -10.4620  -19.6413 H   0  0  0  0  0  0
  -21.9482  -11.7169  -19.7924 H   0  0  0  0  0  0
  -22.2440  -10.9425  -20.2710 O   0  0  0  0  0  0
  -23.1137  -11.3317  -20.1788 H   0  0  0  0  0  0
  -21.7654  -11.2383  -19.4966 H   0  0  0  0  0  0
  -22.2440  -10.9425  -20.2710 O   0  0  0  0  0  0
  -22.3362  -11.8122  -19.8818 H   0  0  0  0  0  0
  -23.0184  -10.4639  -19.9752 H   0  0  0  0  0  0
  -22.2440  -10.9425  -20.2710 O   0  0  0  0  0  0
  -22.0040  -10.9425  -19.3444 H   0  0  0  0  0  0
  -23.2012  -10.9425  -20.2710 H   0  0  0  0  0  0
  -23.2440  -10.9425  -21.2710 O   0  0  0  0  0  0
  -23.8737  -11.4800  -21.7515 H   0  0  0  0  0  0
  -23.7226  -10.6467  -20.4966 H   0  0  0  0  0  0
  -23.2440  -10.9425  -21.2710 O   0  0  0  0  0  0
  -23.6332  -11.0347  -20.4013 H   0  0  0  0  0  0
  -23.5398  -11.7169  -21.7496 H   0  0  0  0  0  0
  -23.2440  -10.9425  -21.2710 O   0  0  0  0  0  0
  -23.3362  -11.8122  -20.8818 H   0  0  0  0  0  0
  -24.0184  -10.4639  -20.9752 H   0  0  0  0  0  0
  -23.2440  -10.9425  -21.2710 O   0  0  0  0  0  0
  -24.1706  -10.7025  -21.2710 H   0  0  0  0  0  0
  -23.2440  -11.8997  -21.2710 H   0  0  0  0  0  0
  -23.2440  -10.9425  -21.2710 O   0  0  0  0  0  0
  -23.8737  -10.4050  -20.7905 H   0  0  0  0  0  0
  -23.7226  -11.2383  -22.0454 H   0  0  0  0  0  0
  -14.7440   -7.9425  -24.2710 O   0  0  0  0  0  0
  -14.3548   -7.8503  -25.1407 H   0  0  0  0  0  0
  -14.4482   -7.1681  -23.7924 H   0  0  0  0  0  0
  -19.2440   -5.4425  -28.7710 O   0  0  0  0  0  0
  -19.6332   -5.5347  -27.9013 H   0  0  0  0  0  0
  -19.5398   -6.2169  -29.2496 H   0  0  0  0  0  0
  -19.2440   -5.4425  -28.7710 O   0  0  0  0  0  0
  -20.1706   -5.2025  -28.7710 H   0  0  0  0  0  0
  -19.2440   -6.3997  -28.7710 H   0  0  0  0  0  0
  -19.2440   -5.4425  -28.7710 O   0  0  0  0  0  0
  -19.8737   -5.9800  -29.2515 H   0  0  0  0  0  0
  -19.7226   -5.1467  -27.9966 H   0  0  0  0  0  0
  -13.7440   -9.9425  -25.7710 O   0  0  0  0  0  0
  -13.7440   -9.0159  -25.5310 H   0  0  0  0  0  0
  -13.7440   -9.9425  -26.7282 H   0  0  0  0  0  0
  -13.7440  -11.4425  -29.2710 O   0  0  0  0  0  0
  -14.1332  -11.3503  -30.1407 H   0  0  0  0  0  0
  -14.0398  -10.6681  -28.7924 H   0  0  0  0  0  0
  -13.7440  -11.4425  -29.2710 O   0  0  0  0  0  0
  -14.2245  -10.8128  -28.7335 H   0  0  0  0  0  0
  -12.9696  -10.9639  -29.5668 H   0  0  0  0  0  0
  -21.7440   -3.9425  -34.7710 O   0  0  0  0  0  0
  -20.8743   -3.5533  -34.8632 H   0  0  0  0  0  0
  -22.2226   -3.6467  -35.5454 H   0  0  0  0  0  0
  -25.7440    2.5575  -30.2710 O   0  0  0  0  0  0
  -24.8743    2.9467  -30.3632 H   0  0  0  0  0  0
  -26.2226    2.8533  -31.0454 H   0  0  0  0  0  0
  -31.2440   -1.9425  -27.7710 O   0  0  0  0  0  0
  -30.7635   -1.3128  -27.2335 H   0  0  0  0  0  0
  -32.0184   -1.4639  -28.0668 H   0  0  0  0  0  0
  -27.7440   -4.9425  -19.7710 O   0  0  0  0  0  0
  -27.2635   -5.5722  -20.3085 H   0  0  0  0  0  0
  -28.5184   -5.4211  -19.4752 H   0  0  0  0  0  0
  -27.7440   -4.9425  -19.7710 O   0  0  0  0  0  0
  -28.2245   -5.5722  -19.2335 H   0  0  0  0  0  0
  -26.9696   -5.4211  -20.0668 H   0  0  0  0  0  0
  -27.7440   -4.9425  -19.7710 O   0  0  0  0  0  0
  -26.8743   -5.3317  -19.6788 H   0  0  0  0  0  0
  -28.2226   -5.2383  -18.9966 H   0  0  0  0  0  0
  -27.2440   -4.4425  -20.7710 O   0  0  0  0  0  0
  -27.1518   -5.3122  -21.1602 H   0  0  0  0  0  0
  -26.4696   -3.9639  -21.0668 H   0  0  0  0  0  0
  -27.2440   -4.4425  -20.7710 O   0  0  0  0  0  0
  -26.3174   -4.2025  -20.7710 H   0  0  0  0  0  0
  -27.2440   -5.3997  -20.7710 H   0  0  0  0  0  0
  -27.2440   -4.4425  -20.7710 O   0  0  0  0  0  0
  -26.6143   -4.9800  -20.2905 H   0  0  0  0  0  0
  -26.7654   -4.1467  -21.5454 H   0  0  0  0  0  0
  -30.7440   -5.9425  -23.2710 O   0  0  0  0  0  0
  -31.2245   -6.5722  -23.8085 H   0  0  0  0  0  0
  -29.9696   -6.4211  -22.9752 H   0  0  0  0  0  0
  -30.7440   -5.9425  -23.2710 O   0  0  0  0  0  0
  -30.3548   -6.0347  -24.1407 H   0  0  0  0  0  0
  -30.4482   -6.7169  -22.7924 H   0  0  0  0  0  0
  -30.7440   -5.9425  -23.2710 O   0  0  0  0  0  0
  -29.8743   -6.3317  -23.3632 H   0  0  0  0  0  0
  -31.2226   -6.2383  -24.0454 H   0  0  0  0  0  0
  -30.7440   -5.9425  -23.2710 O   0  0  0  0  0  0
  -30.2635   -6.5722  -22.7335 H   0  0  0  0  0  0
  -31.5184   -6.4211  -23.5668 H   0  0  0  0  0  0
  -21.2440  -11.4425  -24.7710 O   0  0  0  0  0  0
  -20.7065  -10.9620  -25.4007 H   0  0  0  0  0  0
  -21.5398  -12.2169  -25.2496 H   0  0  0  0  0  0
  -21.2440  -11.4425  -24.7710 O   0  0  0  0  0  0
  -21.7815  -10.9620  -25.4007 H   0  0  0  0  0  0
  -20.9482  -12.2169  -25.2496 H   0  0  0  0  0  0
  -21.2440  -11.4425  -24.7710 O   0  0  0  0  0  0
  -20.7065  -11.9230  -25.4007 H   0  0  0  0  0  0
  -21.5398  -10.6681  -25.2496 H   0  0  0  0  0  0
  -21.2440  -11.4425  -24.7710 O   0  0  0  0  0  0
  -22.1137  -11.8317  -24.8632 H   0  0  0  0  0  0
  -20.7654  -11.7383  -25.5454 H   0  0  0  0  0  0
  -21.2440  -11.4425  -24.7710 O   0  0  0  0  0  0
  -21.7815  -11.9230  -25.4007 H   0  0  0  0  0  0
  -20.9482  -10.6681  -25.2496 H   0  0  0  0  0  0
  -15.2440  -10.4425  -26.2710 O   0  0  0  0  0  0
  -14.8548  -10.3503  -27.1407 H   0  0  0  0  0  0
  -14.9482   -9.6681  -25.7924 H   0  0  0  0  0  0
  -14.7440  -10.4425  -30.2710 O   0  0  0  0  0  0
  -14.3548  -10.3503  -29.4013 H   0  0  0  0  0  0
  -14.4482   -9.6681  -30.7496 H   0  0  0  0  0  0
  -14.7440  -10.4425  -30.2710 O   0  0  0  0  0  0
  -15.6137  -10.0533  -30.1788 H   0  0  0  0  0  0
  -14.2654  -10.1467  -29.4966 H   0  0  0  0  0  0
  -22.2440   -2.4425  -34.2710 O   0  0  0  0  0  0
  -21.7065   -1.9620  -34.9007 H   0  0  0  0  0  0
  -22.5398   -3.2169  -34.7496 H   0  0  0  0  0  0
  -20.7440   -8.9425  -32.2710 O   0  0  0  0  0  0
  -20.6518   -8.0728  -31.8818 H   0  0  0  0  0  0
  -19.9696   -9.4211  -31.9752 H   0  0  0  0  0  0
  -20.7440   -8.9425  -32.2710 O   0  0  0  0  0  0
  -20.6518   -9.8122  -31.8818 H   0  0  0  0  0  0
  -19.9696   -8.4639  -31.9752 H   0  0  0  0  0  0
  -20.7440   -8.9425  -32.2710 O   0  0  0  0  0  0
  -20.9840   -8.9425  -31.3444 H   0  0  0  0  0  0
  -19.7868   -8.9425  -32.2710 H   0  0  0  0  0  0
  -20.7440   -8.9425  -32.2710 O   0  0  0  0  0  0
  -20.1143   -8.4050  -32.7515 H   0  0  0  0  0  0
  -20.2654   -9.2383  -31.4966 H   0  0  0  0  0  0
  -20.7440   -8.9425  -32.2710 O   0  0  0  0  0  0
  -20.1143   -9.4800  -32.7515 H   0  0  0  0  0  0
  -20.2654   -8.6467  -31.4966 H   0  0  0  0  0  0
  -17.7440   -9.9425  -21.2710 O   0  0  0  0  0  0
  -18.2245  -10.5722  -20.7335 H   0  0  0  0  0  0
  -16.9696  -10.4211  -21.5668 H   0  0  0  0  0  0
  -17.7440   -9.9425  -21.2710 O   0  0  0  0  0  0
  -18.2245  -10.5722  -21.8085 H   0  0  0  0  0  0
  -16.9696  -10.4211  -20.9752 H   0  0  0  0  0  0
  -17.7440   -9.9425  -21.2710 O   0  0  0  0  0  0
  -17.3548  -10.0347  -22.1407 H   0  0  0  0  0  0
  -17.4482  -10.7169  -20.7924 H   0  0  0  0  0  0
  -17.7440   -9.9425  -21.2710 O   0  0  0  0  0  0
  -17.2635  -10.5722  -21.8085 H   0  0  0  0  0  0
  -18.5184  -10.4211  -20.9752 H   0  0  0  0  0  0
  -22.2440   -4.9425  -22.7710 O   0  0  0  0  0  0
  -22.0040   -4.9425  -23.6976 H   0  0  0  0  0  0
  -23.2012   -4.9425  -22.7710 H   0  0  0  0  0  0
  -22.2440   -4.9425  -22.7710 O   0  0  0  0  0  0
  -22.3362   -5.8122  -23.1602 H   0  0  0  0  0  0
  -23.0184   -4.4639  -23.0668 H   0  0  0  0  0  0
  -22.2440   -4.9425  -22.7710 O   0  0  0  0  0  0
  -22.3362   -4.0728  -23.1602 H   0  0  0  0  0  0
  -23.0184   -5.4211  -23.0668 H   0  0  0  0  0  0
  -22.2440   -4.9425  -22.7710 O   0  0  0  0  0  0
  -23.1137   -4.5533  -22.8632 H   0  0  0  0  0  0
  -21.7654   -4.6467  -23.5454 H   0  0  0  0  0  0
  -22.2440   -4.9425  -22.7710 O   0  0  0  0  0  0
  -23.1137   -5.3317  -22.8632 H   0  0  0  0  0  0
  -21.7654   -5.2383  -23.5454 H   0  0  0  0  0  0
  -28.2440   -4.9425  -35.7710 O   0  0  0  0  0  0
  -28.6332   -5.0347  -34.9013 H   0  0  0  0  0  0
  -28.5398   -5.7169  -36.2496 H   0  0  0  0  0  0
  -28.2440   -4.9425  -35.7710 O   0  0  0  0  0  0
  -28.8737   -5.4800  -36.2515 H   0  0  0  0  0  0
  -28.7226   -4.6467  -34.9966 H   0  0  0  0  0  0
  -12.2440   -6.4425  -37.2710 O   0  0  0  0  0  0
  -11.8548   -6.5347  -36.4013 H   0  0  0  0  0  0
  -11.9482   -7.2169  -37.7496 H   0  0  0  0  0  0
  -19.2440   -6.9425  -32.2710 O   0  0  0  0  0  0
  -18.6143   -6.4050  -31.7905 H   0  0  0  0  0  0
  -18.7654   -7.2383  -33.0454 H   0  0  0  0  0  0
  -19.2440   -6.9425  -32.2710 O   0  0  0  0  0  0
  -19.7245   -6.3128  -32.8085 H   0  0  0  0  0  0
  -18.4696   -6.4639  -31.9752 H   0  0  0  0  0  0
  -19.2440   -6.9425  -32.2710 O   0  0  0  0  0  0
  -19.1518   -7.8122  -31.8818 H   0  0  0  0  0  0
  -18.4696   -6.4639  -31.9752 H   0  0  0  0  0  0
  -28.7440   -4.9425  -39.2710 O   0  0  0  0  0  0
  -29.2245   -5.5722  -39.8085 H   0  0  0  0  0  0
  -27.9696   -5.4211  -38.9752 H   0  0  0  0  0  0
  -28.7440   -4.9425  -39.2710 O   0  0  0  0  0  0
  -28.3548   -5.0347  -38.4013 H   0  0  0  0  0  0
  -28.4482   -5.7169  -39.7496 H   0  0  0  0  0  0
  -20.7440   -7.4425  -35.7710 O   0  0  0  0  0  0
  -21.3737   -6.9050  -35.2905 H   0  0  0  0  0  0
  -21.2226   -7.7383  -36.5454 H   0  0  0  0  0  0
  -29.2440   -2.9425  -27.2710 O   0  0  0  0  0  0
  -30.1706   -3.1825  -27.2710 H   0  0  0  0  0  0
  -29.2440   -1.9853  -27.2710 H   0  0  0  0  0  0
  -29.2440   -2.9425  -27.2710 O   0  0  0  0  0  0
  -29.2440   -2.0159  -27.0310 H   0  0  0  0  0  0
  -29.2440   -2.9425  -28.2282 H   0  0  0  0  0  0
  -17.7440   -9.4425  -24.7710 O   0  0  0  0  0  0
  -18.3737   -9.9800  -25.2515 H   0  0  0  0  0  0
  -18.2226   -9.1467  -23.9966 H   0  0  0  0  0  0
  -17.7440   -9.4425  -24.7710 O   0  0  0  0  0  0
  -17.8362  -10.3122  -24.3818 H   0  0  0  0  0  0
  -18.5184   -8.9639  -24.4752 H   0  0  0  0  0  0
  -17.7440   -9.4425  -24.7710 O   0  0  0  0  0  0
  -18.2815   -8.9620  -24.1413 H   0  0  0  0  0  0
  -17.4482  -10.2169  -24.2924 H   0  0  0  0  0  0
  -17.7440   -9.4425  -24.7710 O   0  0  0  0  0  0
  -16.8743   -9.0533  -24.6788 H   0  0  0  0  0  0
  -18.2226   -9.1467  -23.9966 H   0  0  0  0  0  0
  -17.7440   -9.4425  -24.7710 O   0  0  0  0  0  0
  -18.6137   -9.0533  -24.6788 H   0  0  0  0  0  0
  -17.2654   -9.1467  -23.9966 H   0  0  0  0  0  0
  -19.2440   -8.9425  -25.7710 O   0  0  0  0  0  0
  -19.4840   -8.9425  -24.8444 H   0  0  0  0  0  0
  -18.2868   -8.9425  -25.7710 H   0  0  0  0  0  0
  -19.2440   -8.9425  -25.7710 O   0  0  0  0  0  0
  -19.2440   -8.0159  -26.0110 H   0  0  0  0  0  0
  -19.2440   -8.9425  -24.8138 H   0  0  0  0  0  0
  -19.2440   -8.9425  -25.7710 O   0  0  0  0  0  0
  -19.2440   -9.8691  -26.0110 H   0  0  0  0  0  0
  -19.2440   -8.9425  -24.8138 H   0  0  0  0  0  0
  -18.2440   -8.4425  -25.2710 O   0  0  0  0  0  0
  -18.7815   -8.9230  -24.6413 H   0  0  0  0  0  0
  -17.9482   -7.6681  -24.7924 H   0  0  0  0  0  0
  -18.2440   -8.4425  -25.2710 O   0  0  0  0  0  0
  -17.3743   -8.8317  -25.1788 H   0  0  0  0  0  0
  -18.7226   -8.7383  -24.4966 H   0  0  0  0  0  0
  -18.2440   -8.4425  -25.2710 O   0  0  0  0  0  0
  -18.8737   -7.9050  -25.7515 H   0  0  0  0  0  0
  -18.7226   -8.7383  -24.4966 H   0  0  0  0  0  0
  -18.2440   -8.4425  -25.2710 O   0  0  0  0  0  0
  -18.6332   -8.5347  -24.4013 H   0  0  0  0  0  0
  -18.5398   -9.2169  -25.7496 H   0  0  0  0  0  0
  -31.2440    1.5575  -40.2710 O   0  0  0  0  0  0
  -31.6332    1.4653  -39.4013 H   0  0  0  0  0  0
  -31.5398    0.7831  -40.7496 H   0  0  0  0  0  0
  -31.2440    1.5575  -40.2710 O   0  0  0  0  0  0
  -31.7815    1.0770  -39.6413 H   0  0  0  0  0  0
  -30.9482    2.3319  -39.7924 H   0  0  0  0  0  0
  -31.2440    1.5575  -40.2710 O   0  0  0  0  0  0
  -31.8737    2.0950  -40.7515 H   0  0  0  0  0  0
  -31.7226    1.2617  -39.4966 H   0  0  0  0  0  0
  -31.2440    1.5575  -40.2710 O   0  0  0  0  0  0
  -31.8737    1.0200  -39.7905 H   0  0  0  0  0  0
  -31.7226    1.8533  -41.0454 H   0  0  0  0  0  0
  -31.2440    1.5575  -40.2710 O   0  0  0  0  0  0
  -30.3743    1.1683  -40.1788 H   0  0  0  0  0  0
  -31.7226    1.2617  -39.4966 H   0  0  0  0  0  0
  -16.2440   -8.9425  -39.2710 O   0  0  0  0  0  0
  -16.6332   -8.8503  -40.1407 H   0  0  0  0  0  0
  -16.5398   -8.1681  -38.7924 H   0  0  0  0  0  0
  -22.2440   -5.4425  -32.7710 O   0  0  0  0  0  0
  -21.3743   -5.8317  -32.8632 H   0  0  0  0  0  0
  -22.7226   -5.7383  -33.5454 H   0  0  0  0  0  0
  -22.2440   -5.4425  -32.7710 O   0  0  0  0  0  0
  -21.7065   -4.9620  -33.4007 H   0  0  0  0  0  0
  -22.5398   -6.2169  -33.2496 H   0  0  0  0  0  0
  -22.2440   -5.4425  -32.7710 O   0  0  0  0  0  0
  -22.7815   -5.9230  -33.4007 H   0  0  0  0  0  0
  -21.9482   -4.6681  -33.2496 H   0  0  0  0  0  0
  -22.2440   -5.4425  -32.7710 O   0  0  0  0  0  0
  -22.6332   -5.5347  -33.6407 H   0  0  0  0  0  0
  -22.5398   -6.2169  -32.2924 H   0  0  0  0  0  0
  -27.7440   -6.9425  -39.2710 O   0  0  0  0  0  0
  -27.6518   -7.8122  -38.8818 H   0  0  0  0  0  0
  -26.9696   -6.4639  -38.9752 H   0  0  0  0  0  0
  -27.7440   -6.9425  -39.2710 O   0  0  0  0  0  0
  -27.1143   -6.4050  -38.7905 H   0  0  0  0  0  0
  -27.2654   -7.2383  -40.0454 H   0  0  0  0  0  0
  -27.7440   -6.9425  -39.2710 O   0  0  0  0  0  0
  -26.8743   -6.5533  -39.1788 H   0  0  0  0  0  0
  -28.2226   -6.6467  -38.4966 H   0  0  0  0  0  0
  -31.2440   -3.4425  -31.2710 O   0  0  0  0  0  0
  -32.1706   -3.6825  -31.2710 H   0  0  0  0  0  0
  -31.2440   -2.4853  -31.2710 H   0  0  0  0  0  0
  -31.2440   -3.4425  -31.2710 O   0  0  0  0  0  0
  -31.0040   -3.4425  -30.3444 H   0  0  0  0  0  0
  -32.2012   -3.4425  -31.2710 H   0  0  0  0  0  0
  -27.2440   -6.9425  -40.2710 O   0  0  0  0  0  0
  -26.6143   -7.4800  -40.7515 H   0  0  0  0  0  0
  -26.7654   -6.6467  -39.4966 H   0  0  0  0  0  0
  -27.2440   -6.9425  -40.2710 O   0  0  0  0  0  0
  -27.1518   -7.8122  -39.8818 H   0  0  0  0  0  0
  -26.4696   -6.4639  -39.9752 H   0  0  0  0  0  0
  -27.2440   -6.9425  -40.2710 O   0  0  0  0  0  0
  -26.7065   -6.4620  -39.6413 H   0  0  0  0  0  0
  -27.5398   -7.7169  -39.7924 H   0  0  0  0  0  0
  -27.2440   -6.9425  -40.2710 O   0  0  0  0  0  0
  -26.8548   -6.8503  -39.4013 H   0  0  0  0  0  0
  -26.9482   -6.1681  -40.7496 H   0  0  0  0  0  0
  -17.7440   -8.4425  -31.7710 O   0  0  0  0  0  0
  -16.8174   -8.6825  -31.7710 H   0  0  0  0  0  0
  -17.7440   -7.4853  -31.7710 H   0  0  0  0  0  0
  -17.7440   -8.4425  -31.7710 O   0  0  0  0  0  0
  -17.7440   -7.5159  -32.0110 H   0  0  0  0  0  0
  -17.7440   -8.4425  -30.8138 H   0  0  0  0  0  0
  -17.7440   -8.4425  -31.7710 O   0  0  0  0  0  0
  -17.7440   -7.5159  -31.5310 H   0  0  0  0  0  0
  -17.7440   -8.4425  -32.7282 H   0  0  0  0  0  0
  -29.2440   -6.9425  -18.7710 O   0  0  0  0  0  0
  -30.1137   -6.5533  -18.8632 H   0  0  0  0  0  0
  -28.7654   -6.6467  -19.5454 H   0  0  0  0  0  0
  -29.2440   -6.9425  -18.7710 O   0  0  0  0  0  0
  -29.8737   -6.4050  -19.2515 H   0  0  0  0  0  0
  -29.7226   -7.2383  -17.9966 H   0  0  0  0  0  0
  -29.2440   -6.9425  -18.7710 O   0  0  0  0  0  0
  -29.3362   -7.8122  -19.1602 H   0  0  0  0  0  0
  -30.0184   -6.4639  -19.0668 H   0  0  0  0  0  0
  -29.2440   -6.9425  -18.7710 O   0  0  0  0  0  0
  -29.8737   -7.4800  -18.2905 H   0  0  0  0  0  0
  -29.7226   -6.6467  -19.5454 H   0  0  0  0  0  0
  -29.2440   -6.9425  -18.7710 O   0  0  0  0  0  0
  -29.3362   -6.0728  -19.1602 H   0  0  0  0  0  0
  -30.0184   -7.4211  -19.0668 H   0  0  0  0  0  0
  -29.2440   -6.9425  -18.7710 O   0  0  0  0  0  0
  -29.7815   -6.4620  -19.4007 H   0  0  0  0  0  0
  -28.9482   -7.7169  -19.2496 H   0  0  0  0  0  0
  -30.2440   -3.4425  -25.7710 O   0  0  0  0  0  0
  -30.6332   -3.3503  -24.9013 H   0  0  0  0  0  0
  -30.5398   -2.6681  -26.2496 H   0  0  0  0  0  0
  -30.2440   -3.4425  -25.7710 O   0  0  0  0  0  0
  -29.3743   -3.0533  -25.6788 H   0  0  0  0  0  0
  -30.7226   -3.1467  -24.9966 H   0  0  0  0  0  0
  -17.2440   -9.4425  -23.2710 O   0  0  0  0  0  0
  -18.1137   -9.0533  -23.3632 H   0  0  0  0  0  0
  -16.7654   -9.1467  -24.0454 H   0  0  0  0  0  0
  -17.2440   -9.4425  -23.2710 O   0  0  0  0  0  0
  -17.3362  -10.3122  -23.6602 H   0  0  0  0  0  0
  -18.0184   -8.9639  -23.5668 H   0  0  0  0  0  0
  -19.7440   -7.4425  -25.2710 O   0  0  0  0  0  0
  -20.2815   -6.9620  -24.6413 H   0  0  0  0  0  0
  -19.4482   -8.2169  -24.7924 H   0  0  0  0  0  0
  -19.7440   -7.4425  -25.2710 O   0  0  0  0  0  0
  -19.6518   -8.3122  -24.8818 H   0  0  0  0  0  0
  -18.9696   -6.9639  -24.9752 H   0  0  0  0  0  0
  -19.7440   -7.4425  -25.2710 O   0  0  0  0  0  0
  -20.6137   -7.8317  -25.1788 H   0  0  0  0  0  0
  -19.2654   -7.7383  -24.4966 H   0  0  0  0  0  0
  -19.7440   -7.4425  -25.2710 O   0  0  0  0  0  0
  -19.2635   -8.0722  -24.7335 H   0  0  0  0  0  0
  -20.5184   -7.9211  -25.5668 H   0  0  0  0  0  0
  -29.2440   -7.4425  -20.2710 O   0  0  0  0  0  0
  -28.7635   -6.8128  -20.8085 H   0  0  0  0  0  0
  -30.0184   -6.9639  -19.9752 H   0  0  0  0  0  0
  -29.2440   -7.4425  -20.2710 O   0  0  0  0  0  0
  -29.8737   -6.9050  -19.7905 H   0  0  0  0  0  0
  -29.7226   -7.7383  -21.0454 H   0  0  0  0  0  0
  -29.2440   -7.4425  -20.2710 O   0  0  0  0  0  0
  -30.1137   -7.0533  -20.1788 H   0  0  0  0  0  0
  -28.7654   -7.1467  -19.4966 H   0  0  0  0  0  0
  -29.2440   -7.4425  -20.2710 O   0  0  0  0  0  0
  -29.3362   -8.3122  -19.8818 H   0  0  0  0  0  0
  -30.0184   -6.9639  -19.9752 H   0  0  0  0  0  0
  -12.2440   -4.4425  -18.2710 O   0  0  0  0  0  0
  -11.8548   -4.3503  -17.4013 H   0  0  0  0  0  0
  -11.9482   -3.6681  -18.7496 H   0  0  0  0  0  0
  -12.2440   -4.4425  -18.2710 O   0  0  0  0  0  0
  -11.6143   -3.9050  -18.7515 H   0  0  0  0  0  0
  -11.7654   -4.7383  -17.4966 H   0  0  0  0  0  0
  -12.2440   -4.4425  -18.2710 O   0  0  0  0  0  0
  -11.8548   -4.5347  -17.4013 H   0  0  0  0  0  0
  -11.9482   -5.2169  -18.7496 H   0  0  0  0  0  0
  -12.2440   -4.4425  -18.2710 O   0  0  0  0  0  0
  -11.6143   -4.9800  -17.7905 H   0  0  0  0  0  0
  -11.7654   -4.1467  -19.0454 H   0  0  0  0  0  0
  -12.2440   -4.4425  -18.2710 O   0  0  0  0  0  0
  -12.1518   -3.5728  -18.6602 H   0  0  0  0  0  0
  -11.4696   -4.9211  -18.5668 H   0  0  0  0  0  0
  -12.2440   -4.4425  -18.2710 O   0  0  0  0  0  0
  -11.8548   -4.5347  -19.1407 H   0  0  0  0  0  0
  -11.9482   -5.2169  -17.7924 H   0  0  0  0  0  0
  -24.7440   -4.4425  -19.7710 O   0  0  0  0  0  0
  -25.6706   -4.6825  -19.7710 H   0  0  0  0  0  0
  -24.7440   -3.4853  -19.7710 H   0  0  0  0  0  0
  -24.7440   -4.4425  -19.7710 O   0  0  0  0  0  0
  -25.1332   -4.3503  -20.6407 H   0  0  0  0  0  0
  -25.0398   -3.6681  -19.2924 H   0  0  0  0  0  0
  -24.7440   -4.4425  -19.7710 O   0  0  0  0  0  0
  -25.1332   -4.3503  -18.9013 H   0  0  0  0  0  0
  -25.0398   -3.6681  -20.2496 H   0  0  0  0  0  0
  -24.7440   -4.4425  -19.7710 O   0  0  0  0  0  0
  -24.7440   -3.5159  -19.5310 H   0  0  0  0  0  0
  -24.7440   -4.4425  -20.7282 H   0  0  0  0  0  0
  -24.2440   -2.9425  -21.2710 O   0  0  0  0  0  0
  -24.8737   -3.4800  -21.7515 H   0  0  0  0  0  0
  -24.7226   -2.6467  -20.4966 H   0  0  0  0  0  0
  -24.2440   -2.9425  -21.2710 O   0  0  0  0  0  0
  -24.3362   -3.8122  -20.8818 H   0  0  0  0  0  0
  -25.0184   -2.4639  -20.9752 H   0  0  0  0  0  0
  -24.2440   -2.9425  -21.2710 O   0  0  0  0  0  0
  -24.8737   -2.4050  -20.7905 H   0  0  0  0  0  0
  -24.7226   -3.2383  -22.0454 H   0  0  0  0  0  0
  -22.2440   -2.9425  -27.2710 O   0  0  0  0  0  0
  -22.7245   -2.3128  -26.7335 H   0  0  0  0  0  0
  -21.4696   -2.4639  -27.5668 H   0  0  0  0  0  0
  -31.2440   -5.9425  -33.7710 O   0  0  0  0  0  0
  -31.7245   -5.3128  -34.3085 H   0  0  0  0  0  0
  -30.4696   -5.4639  -33.4752 H   0  0  0  0  0  0
  -31.2440   -5.9425  -33.7710 O   0  0  0  0  0  0
  -31.8737   -5.4050  -34.2515 H   0  0  0  0  0  0
  -31.7226   -6.2383  -32.9966 H   0  0  0  0  0  0
  -31.2440   -5.9425  -33.7710 O   0  0  0  0  0  0
  -31.7815   -5.4620  -34.4007 H   0  0  0  0  0  0
  -30.9482   -6.7169  -34.2496 H   0  0  0  0  0  0
  -31.2440   -5.9425  -33.7710 O   0  0  0  0  0  0
  -32.1137   -5.5533  -33.8632 H   0  0  0  0  0  0
  -30.7654   -5.6467  -34.5454 H   0  0  0  0  0  0
  -21.7440   -2.9425  -28.7710 O   0  0  0  0  0  0
  -21.2635   -2.3128  -28.2335 H   0  0  0  0  0  0
  -22.5184   -2.4639  -29.0668 H   0  0  0  0  0  0
  -21.7440   -2.9425  -28.7710 O   0  0  0  0  0  0
  -22.2815   -3.4230  -28.1413 H   0  0  0  0  0  0
  -21.4482   -2.1681  -28.2924 H   0  0  0  0  0  0
  -18.2440   -7.9425  -37.7710 O   0  0  0  0  0  0
  -18.7245   -7.3128  -37.2335 H   0  0  0  0  0  0
  -17.4696   -7.4639  -38.0668 H   0  0  0  0  0  0
  -20.2440   -9.4425  -37.2710 O   0  0  0  0  0  0
  -19.7635   -8.8128  -36.7335 H   0  0  0  0  0  0
  -21.0184   -8.9639  -37.5668 H   0  0  0  0  0  0
  -20.2440   -9.4425  -37.2710 O   0  0  0  0  0  0
  -20.7245   -8.8128  -37.8085 H   0  0  0  0  0  0
  -19.4696   -8.9639  -36.9752 H   0  0  0  0  0  0
  -20.2440   -9.4425  -37.2710 O   0  0  0  0  0  0
  -20.3362   -8.5728  -37.6602 H   0  0  0  0  0  0
  -21.0184   -9.9211  -37.5668 H   0  0  0  0  0  0
  -20.2440   -9.4425  -37.2710 O   0  0  0  0  0  0
  -20.6332   -9.3503  -36.4013 H   0  0  0  0  0  0
  -20.5398   -8.6681  -37.7496 H   0  0  0  0  0  0
  -24.2440   -2.9425  -25.2710 O   0  0  0  0  0  0
  -24.1518   -2.0728  -25.6602 H   0  0  0  0  0  0
  -23.4696   -3.4211  -25.5668 H   0  0  0  0  0  0
  -24.2440   -2.9425  -25.2710 O   0  0  0  0  0  0
  -24.7245   -2.3128  -25.8085 H   0  0  0  0  0  0
  -23.4696   -2.4639  -24.9752 H   0  0  0  0  0  0
  -24.2440   -2.9425  -25.2710 O   0  0  0  0  0  0
  -24.7815   -3.4230  -25.9007 H   0  0  0  0  0  0
  -23.9482   -2.1681  -25.7496 H   0  0  0  0  0  0
  -24.2440   -2.9425  -25.2710 O   0  0  0  0  0  0
  -23.7065   -3.4230  -25.9007 H   0  0  0  0  0  0
  -24.5398   -2.1681  -25.7496 H   0  0  0  0  0  0
  -24.2440   -2.9425  -25.2710 O   0  0  0  0  0  0
  -24.3362   -2.0728  -25.6602 H   0  0  0  0  0  0
  -25.0184   -3.4211  -25.5668 H   0  0  0  0  0  0
  -30.7440   -4.4425  -33.7710 O   0  0  0  0  0  0
  -31.3737   -3.9050  -33.2905 H   0  0  0  0  0  0
  -31.2226   -4.7383  -34.5454 H   0  0  0  0  0  0
  -30.7440   -4.4425  -33.7710 O   0  0  0  0  0  0
  -31.1332   -4.5347  -34.6407 H   0  0  0  0  0  0
  -31.0398   -5.2169  -33.2924 H   0  0  0  0  0  0
  1  2  1  0  0  0
  1  3  1  0  0  0
  4  5  1  0  0  0
  4  6  1  0  0  0
  7  8  1  0  0  0
  7  9  1  0  0  0
 10 11  1  0  0  0
 10 12  1  0  0  0
 13 14  1  0  0  0
 13 15  1  0  0  0
 16 17  1  0  0  0
 16 18  1  0  0  0
 19 20  1  0  0  0
 19 21  1  0  0  0
 22 23  1  0  0  0
 22 24  1  0  0  0
 25 26  1  0  0  0
 25 27  1  0  0  0
 28 29  1  0  0  0
 28 30  1  0  0  0
 31 32  1  0  0  0
 31 33  1  0  0  0
 34 35  1  0  0  0
 34 36  1  0  0  0
 37 38  1  0  0  0
 37 39  1  0  0  0
 40 41  1  0  0  0
 40 42  1  0  0  0
 43 44  1  0  0  0
 43 45  1  0  0  0
 46 47  1  0  0  0
 46 48  1  0  0  0
 49 50  1  0  0  0
 49 51  1  0  0  0
 52 53  1  0  0  0
 52 54  1  0  0  0
 55 56  1  0  0  0
 55 57  1  0  0  0
 58 59  1  0  0  0
 58 60  1  0  0  0
 61 62  1  0  0  0
 61 63  1  0  0  0
 64 65  1  0  0  0
 64 66  1  0  0  0
 67 68  1  0  0  0
 67 69  1  0  0  0
 70 71  1  0  0  0
 70 72  1  0  0  0
 73 74  1  0  0  0
 73 75  1  0  0  0
 76 77  1  0  0  0
 76 78  1  0  0  0
 79 80  1  0  0  0
 79 81  1  0  0  0
 82 83  1  0  0  0
 82 84  1  0  0  0
 85 86  1  0  0  0
 85 87  1  0  0  0
 88 89  1  0  0  0
 88 90  1  0  0  0
 91 92  1  0  0  0
 91 93  1  0  0  0
 94 95  1  0  0  0
 94 96  1  0  0  0
 97 98  1  0  0  0
 97 99  1  0  0  0
100101  1  0  0  0
100102  1  0  0  0
103104  1  0  0  0
103105  1  0  0  0
106107  1  0  0  0
106108  1  0  0  0
109110  1  0  0  0
109111  1  0  0  0
112113  1  0  0  0
112114  1  0  0  0
115116  1  0  0  0
115117  1  0  0  0
118119  1  0  0  0
118120  1  0  0  0
121122  1  0  0  0
121123  1  0  0  0
124125  1  0  0  0
124126  1  0  0  0
127128  1  0  0  0
127129  1  0  0  0
130131  1  0  0  0
130132  1  0  0  0
133134  1  0  0  0
133135  1  0  0  0
136137  1  0  0  0
136138  1  0  0  0
139140  1  0  0  0
139141  1  0  0  0
142143  1  0  0  0
142144  1  0  0  0
145146  1  0  0  0
145147  1  0  0  0
148149  1  0  0  0
148150  1  0  0  0
151152  1  0  0  0
151153  1  0  0  0
154155  1  0  0  0
154156  1  0  0  0
157158  1  0  0  0
157159  1  0  0  0
160161  1  0  0  0
160162  1  0  0  0
163164  1  0  0  0
163165  1  0  0  0
166167  1  0  0  0
166168  1  0  0  0
169170  1  0  0  0
169171  1  0  0  0
172173  1  0  0  0
172174  1  0  0  0
175176  1  0  0  0
175177  1  0  0  0
178179  1  0  0  0
178180  1  0  0  0
181182  1  0  0  0
181183  1  0  0  0
184185  1  0  0  0
184186  1  0  0  0
187188  1  0  0  0
187189  1  0  0  0
190191  1  0  0  0
190192  1  0  0  0
193194  1  0  0  0
193195  1  0  0  0
196197  1  0  0  0
196198  1  0  0  0
199200  1  0  0  0
199201  1  0  0  0
202203  1  0  0  0
202204  1  0  0  0
205206  1  0  0  0
205207  1  0  0  0
208209  1  0  0  0
208210  1  0  0  0
211212  1  0  0  0
211213  1  0  0  0
214215  1  0  0  0
214216  1  0  0  0
217218  1  0  0  0
217219  1  0  0  0
220221  1  0  0  0
220222  1  0  0  0
223224  1  0  0  0
223225  1  0  0  0
226227  1  0  0  0
226228  1  0  0  0
229230  1  0  0  0
229231  1  0  0  0
232233  1  0  0  0
232234  1  0  0  0
235236  1  0  0  0
235237  1  0  0  0
238239  1  0  0  0
238240  1  0  0  0
241242  1  0  0  0
241243  1  0  0  0
244245  1  0  0  0
244246  1  0  0  0
247248  1  0  0  0
247249  1  0  0  0
250251  1  0  0  0
250252  1  0  0  0
253254  1  0  0  0
253255  1  0  0  0
256257  1  0  0  0
256258  1  0  0  0
259260  1  0  0  0
259261  1  0  0  0
262263  1  0  0  0
262264  1  0  0  0
265266  1  0  0  0
265267  1  0  0  0
268269  1  0  0  0
268270  1  0  0  0
271272  1  0  0  0
271273  1  0  0  0
274275  1  0  0  0
274276  1  0  0  0
277278  1  0  0  0
277279  1  0  0  0
280281  1  0  0  0
280282  1  0  0  0
283284  1  0  0  0
283285  1  0  0  0
286287  1  0  0  0
286288  1  0  0  0
289290  1  0  0  0
289291  1  0  0  0
292293  1  0  0  0
292294  1  0  0  0
295296  1  0  0  0
295297  1  0  0  0
298299  1  0  0  0
298300  1  0  0  0
301302  1  0  0  0
301303  1  0  0  0
304305  1  0  0  0
304306  1  0  0  0
307308  1  0  0  0
307309  1  0  0  0
310311  1  0  0  0
310312  1  0  0  0
313314  1  0  0  0
313315  1  0  0  0
316317  1  0  0  0
316318  1  0  0  0
319320  1  0  0  0
319321  1  0  0  0
322323  1  0  0  0
322324  1  0  0  0
325326  1  0  0  0
325327  1  0  0  0
328329  1  0  0  0
328330  1  0  0  0
331332  1  0  0  0
331333  1  0  0  0
334335  1  0  0  0
334336  1  0  0  0
337338  1  0  0  0
337339  1  0  0  0
340341  1  0  0  0
340342  1  0  0  0
343344  1  0  0  0
343345  1  0  0  0
346347  1  0  0  0
346348  1  0  0  0
349350  1  0  0  0
349351  1  0  0  0
352353  1  0  0  0
352354  1  0  0  0
355356  1  0  0  0
355357  1  0  0  0
358359  1  0  0  0
358360  1  0  0  0
361362  1  0  0  0
361363  1  0  0  0
364365  1  0  0  0
364366  1  0  0  0
367368  1  0  0  0
367369  1  0  0  0
370371  1  0  0  0
370372  1  0  0  0
373374  1  0  0  0
373375  1  0  0  0
376377  1  0  0  0
376378  1  0  0  0
379380  1  0  0  0
379381  1  0  0  0
382383  1  0  0  0
382384  1  0  0  0
385386  1  0  0  0
385387  1  0  0  0
388389  1  0  0  0
388390  1  0  0  0
391392  1  0  0  0
391393  1  0  0  0
394395  1  0  0  0
394396  1  0  0  0
397398  1  0  0  0
397399  1  0  0  0
400401  1  0  0  0
400402  1  0  0  0
403404  1  0  0  0
403405  1  0  0  0
406407  1  0  0  0
406408  1  0  0  0
409410  1  0  0  0
409411  1  0  0  0
412413  1  0  0  0
412414  1  0  0  0
415416  1  0  0  0
415417  1  0  0  0
418419  1  0  0  0
418420  1  0  0  0
421422  1  0  0  0
421423  1  0  0  0
424425  1  0  0  0
424426  1  0  0  0
427428  1  0  0  0
427429  1  0  0  0
430431  1  0  0  0
430432  1  0  0  0
433434  1  0  0  0
433435  1  0  0  0
436437  1  0  0  0
436438  1  0  0  0
439440  1  0  0  0
439441  1  0  0  0
442443  1  0  0  0
442444  1  0  0  0
445446  1  0  0  0
445447  1  0  0  0
448449  1  0  0  0
448450  1  0  0  0
451452  1  0  0  0
451453  1  0  0  0
454455  1  0  0  0
454456  1  0  0  0
457458  1  0  0  0
457459  1  0  0  0
460461  1  0  0  0
460462  1  0  0  0
463464  1  0  0  0
463465  1  0  0  0
466467  1  0  0  0
466468  1  0  0  0
469470  1  0  0  0
469471  1  0  0  0
472473  1  0  0  0
472474  1  0  0  0
475476  1  0  0  0
475477  1  0  0  0
478479  1  0  0  0
478480  1  0  0  0
481482  1  0  0  0
481483  1  0  0  0
484485  1  0  0  0
484486  1  0  0  0
487488  1  0  0  0
487489  1  0  0  0
M  END
> <s_m_entry_id>
2600

> <s_m_entry_name>
SZMAP_Mpro_7UU7.6_merged163

> <s_m_Source_Path>
C:\Users\ifige\Documents\lab_projects\Mpro\szmap\7UU7\SZMAP_7UU7

> <s_m_Source_File>
SZMAP_Mpro_7UU7.mae

> <i_m_Source_File_Index>
6

> <szmap_neut_diff_free_energy>
-8.85

> <szmap_vdw>
10.679

> <szmap_order>
0.452

> <szmap_probability>
0.14

$$$$
