7uu9_yellow_waters
                    3D
 Structure written by MMmdl.
477318  0  0  1  0            999 V2000
  -25.7440    2.5575  -39.7710 O   0  0  0  0  0  0
  -26.2245    3.1872  -40.3085 H   0  0  0  0  0  0
  -24.9696    3.0361  -39.4752 H   0  0  0  0  0  0
  -20.7440   -4.9425  -35.7710 O   0  0  0  0  0  0
  -20.7440   -5.8691  -36.0110 H   0  0  0  0  0  0
  -20.7440   -4.9425  -34.8138 H   0  0  0  0  0  0
  -20.7440   -4.9425  -35.7710 O   0  0  0  0  0  0
  -20.3548   -5.0347  -34.9013 H   0  0  0  0  0  0
  -20.4482   -5.7169  -36.2496 H   0  0  0  0  0  0
  -30.2440   -5.4425  -23.2710 O   0  0  0  0  0  0
  -30.7245   -6.0722  -23.8085 H   0  0  0  0  0  0
  -29.4696   -5.9211  -22.9752 H   0  0  0  0  0  0
  -30.2440   -5.4425  -23.2710 O   0  0  0  0  0  0
  -29.7635   -6.0722  -22.7335 H   0  0  0  0  0  0
  -31.0184   -5.9211  -23.5668 H   0  0  0  0  0  0
  -18.7440   -2.9425  -23.2710 O   0  0  0  0  0  0
  -19.6137   -3.3317  -23.3632 H   0  0  0  0  0  0
  -18.2654   -3.2383  -24.0454 H   0  0  0  0  0  0
  -21.7440  -10.9425  -20.2710 O   0  0  0  0  0  0
  -22.2815  -10.4620  -19.6413 H   0  0  0  0  0  0
  -21.4482  -11.7169  -19.7924 H   0  0  0  0  0  0
  -21.7440  -10.9425  -20.2710 O   0  0  0  0  0  0
  -21.8362  -11.8122  -19.8818 H   0  0  0  0  0  0
  -22.5184  -10.4639  -19.9752 H   0  0  0  0  0  0
  -21.7440  -10.9425  -20.2710 O   0  0  0  0  0  0
  -22.6137  -11.3317  -20.1788 H   0  0  0  0  0  0
  -21.2654  -11.2383  -19.4966 H   0  0  0  0  0  0
  -14.2440   -7.9425  -24.2710 O   0  0  0  0  0  0
  -13.8548   -7.8503  -25.1407 H   0  0  0  0  0  0
  -13.9482   -7.1681  -23.7924 H   0  0  0  0  0  0
  -19.7440   -8.4425  -35.2710 O   0  0  0  0  0  0
  -19.1143   -8.9800  -34.7905 H   0  0  0  0  0  0
  -19.2654   -8.1467  -36.0454 H   0  0  0  0  0  0
  -19.7440   -8.4425  -35.2710 O   0  0  0  0  0  0
  -19.1143   -7.9050  -35.7515 H   0  0  0  0  0  0
  -19.2654   -8.7383  -34.4966 H   0  0  0  0  0  0
  -19.7440   -8.4425  -35.2710 O   0  0  0  0  0  0
  -19.1143   -7.9050  -34.7905 H   0  0  0  0  0  0
  -19.2654   -8.7383  -36.0454 H   0  0  0  0  0  0
  -19.7440   -8.4425  -35.2710 O   0  0  0  0  0  0
  -19.1143   -8.9800  -35.7515 H   0  0  0  0  0  0
  -19.2654   -8.1467  -34.4966 H   0  0  0  0  0  0
  -27.7440   -4.9425  -19.7710 O   0  0  0  0  0  0
  -28.6137   -5.3317  -19.6788 H   0  0  0  0  0  0
  -27.2654   -5.2383  -18.9966 H   0  0  0  0  0  0
  -27.7440   -4.9425  -19.7710 O   0  0  0  0  0  0
  -27.2635   -5.5722  -19.2335 H   0  0  0  0  0  0
  -28.5184   -5.4211  -20.0668 H   0  0  0  0  0  0
  -12.2440   -6.9425  -24.7710 O   0  0  0  0  0  0
  -12.8737   -6.4050  -24.2905 H   0  0  0  0  0  0
  -12.7226   -7.2383  -25.5454 H   0  0  0  0  0  0
  -27.2440   -3.4425  -40.2710 O   0  0  0  0  0  0
  -28.1706   -3.2025  -40.2710 H   0  0  0  0  0  0
  -27.2440   -4.3997  -40.2710 H   0  0  0  0  0  0
  -27.2440   -3.4425  -40.2710 O   0  0  0  0  0  0
  -27.6332   -3.5347  -39.4013 H   0  0  0  0  0  0
  -27.5398   -4.2169  -40.7496 H   0  0  0  0  0  0
  -13.2440  -10.9425  -26.7710 O   0  0  0  0  0  0
  -13.7245  -10.3128  -27.3085 H   0  0  0  0  0  0
  -12.4696  -10.4639  -26.4752 H   0  0  0  0  0  0
  -13.2440  -10.9425  -26.7710 O   0  0  0  0  0  0
  -13.6332  -10.8503  -25.9013 H   0  0  0  0  0  0
  -13.5398  -10.1681  -27.2496 H   0  0  0  0  0  0
  -13.7440  -11.4425  -27.7710 O   0  0  0  0  0  0
  -14.6706  -11.6825  -27.7710 H   0  0  0  0  0  0
  -13.7440  -10.4853  -27.7710 H   0  0  0  0  0  0
  -13.7440  -11.4425  -27.7710 O   0  0  0  0  0  0
  -12.8174  -11.6825  -27.7710 H   0  0  0  0  0  0
  -13.7440  -10.4853  -27.7710 H   0  0  0  0  0  0
  -12.2440   -4.4425  -18.2710 O   0  0  0  0  0  0
  -11.6143   -4.9800  -17.7905 H   0  0  0  0  0  0
  -11.7654   -4.1467  -19.0454 H   0  0  0  0  0  0
  -12.2440   -4.4425  -18.2710 O   0  0  0  0  0  0
  -11.6143   -3.9050  -17.7905 H   0  0  0  0  0  0
  -11.7654   -4.7383  -19.0454 H   0  0  0  0  0  0
  -12.2440   -4.4425  -18.2710 O   0  0  0  0  0  0
  -11.8548   -4.5347  -19.1407 H   0  0  0  0  0  0
  -11.9482   -5.2169  -17.7924 H   0  0  0  0  0  0
  -12.2440   -4.4425  -18.2710 O   0  0  0  0  0  0
  -11.6143   -3.9050  -18.7515 H   0  0  0  0  0  0
  -11.7654   -4.7383  -17.4966 H   0  0  0  0  0  0
  -12.7440  -10.9425  -28.2710 O   0  0  0  0  0  0
  -12.2635  -10.3128  -28.8085 H   0  0  0  0  0  0
  -13.5184  -10.4639  -27.9752 H   0  0  0  0  0  0
  -12.7440  -10.9425  -28.2710 O   0  0  0  0  0  0
  -13.1332  -10.8503  -29.1407 H   0  0  0  0  0  0
  -13.0398  -10.1681  -27.7924 H   0  0  0  0  0  0
  -14.7440  -10.9425  -26.7710 O   0  0  0  0  0  0
  -14.2635  -10.3128  -27.3085 H   0  0  0  0  0  0
  -15.5184  -10.4639  -26.4752 H   0  0  0  0  0  0
  -14.7440  -10.9425  -26.7710 O   0  0  0  0  0  0
  -14.3548  -10.8503  -25.9013 H   0  0  0  0  0  0
  -14.4482  -10.1681  -27.2496 H   0  0  0  0  0  0
  -25.7440    2.0575  -36.7710 O   0  0  0  0  0  0
  -26.2815    1.5770  -36.1413 H   0  0  0  0  0  0
  -25.4482    2.8319  -36.2924 H   0  0  0  0  0  0
  -25.7440    2.0575  -36.7710 O   0  0  0  0  0  0
  -25.2065    2.5380  -36.1413 H   0  0  0  0  0  0
  -26.0398    1.2831  -36.2924 H   0  0  0  0  0  0
  -15.2440  -10.9425  -28.2710 O   0  0  0  0  0  0
  -15.7245  -10.3128  -28.8085 H   0  0  0  0  0  0
  -14.4696  -10.4639  -27.9752 H   0  0  0  0  0  0
  -15.2440  -10.9425  -28.2710 O   0  0  0  0  0  0
  -14.8548  -10.8503  -29.1407 H   0  0  0  0  0  0
  -14.9482  -10.1681  -27.7924 H   0  0  0  0  0  0
  -14.2440  -10.9425  -29.2710 O   0  0  0  0  0  0
  -14.7815  -11.4230  -28.6413 H   0  0  0  0  0  0
  -13.9482  -10.1681  -28.7924 H   0  0  0  0  0  0
  -14.2440  -10.9425  -29.2710 O   0  0  0  0  0  0
  -13.8548  -10.8503  -30.1407 H   0  0  0  0  0  0
  -13.9482  -10.1681  -28.7924 H   0  0  0  0  0  0
  -14.2440  -10.9425  -29.2710 O   0  0  0  0  0  0
  -14.1518  -10.0728  -28.8818 H   0  0  0  0  0  0
  -13.4696  -11.4211  -28.9752 H   0  0  0  0  0  0
  -22.2440   -9.4425  -38.2710 O   0  0  0  0  0  0
  -22.1518  -10.3122  -38.6602 H   0  0  0  0  0  0
  -21.4696   -8.9639  -38.5668 H   0  0  0  0  0  0
  -22.2440   -9.4425  -38.2710 O   0  0  0  0  0  0
  -22.4840   -9.4425  -39.1976 H   0  0  0  0  0  0
  -21.2868   -9.4425  -38.2710 H   0  0  0  0  0  0
  -22.2440   -9.4425  -38.2710 O   0  0  0  0  0  0
  -21.3743   -9.8317  -38.3632 H   0  0  0  0  0  0
  -22.7226   -9.7383  -39.0454 H   0  0  0  0  0  0
  -20.7440  -11.4425  -24.7710 O   0  0  0  0  0  0
  -20.2065  -10.9620  -25.4007 H   0  0  0  0  0  0
  -21.0398  -12.2169  -25.2496 H   0  0  0  0  0  0
  -20.7440  -11.4425  -24.7710 O   0  0  0  0  0  0
  -21.2815  -10.9620  -25.4007 H   0  0  0  0  0  0
  -20.4482  -12.2169  -25.2496 H   0  0  0  0  0  0
  -20.7440  -11.4425  -24.7710 O   0  0  0  0  0  0
  -20.2065  -11.9230  -25.4007 H   0  0  0  0  0  0
  -21.0398  -10.6681  -25.2496 H   0  0  0  0  0  0
  -20.7440  -11.4425  -24.7710 O   0  0  0  0  0  0
  -21.2815  -11.9230  -25.4007 H   0  0  0  0  0  0
  -20.4482  -10.6681  -25.2496 H   0  0  0  0  0  0
  -20.7440  -11.4425  -24.7710 O   0  0  0  0  0  0
  -21.6137  -11.8317  -24.8632 H   0  0  0  0  0  0
  -20.2654  -11.7383  -25.5454 H   0  0  0  0  0  0
  -21.2440   -4.9425  -23.2710 O   0  0  0  0  0  0
  -20.7065   -4.4620  -23.9007 H   0  0  0  0  0  0
  -21.5398   -5.7169  -23.7496 H   0  0  0  0  0  0
  -21.2440   -4.9425  -23.2710 O   0  0  0  0  0  0
  -22.1137   -5.3317  -23.3632 H   0  0  0  0  0  0
  -20.7654   -5.2383  -24.0454 H   0  0  0  0  0  0
  -21.2440   -4.9425  -23.2710 O   0  0  0  0  0  0
  -21.7815   -5.4230  -23.9007 H   0  0  0  0  0  0
  -20.9482   -4.1681  -23.7496 H   0  0  0  0  0  0
  -21.2440   -4.9425  -23.2710 O   0  0  0  0  0  0
  -21.0040   -4.9425  -24.1976 H   0  0  0  0  0  0
  -22.2012   -4.9425  -23.2710 H   0  0  0  0  0  0
  -30.7440   -1.9425  -27.2710 O   0  0  0  0  0  0
  -31.2245   -1.3128  -27.8085 H   0  0  0  0  0  0
  -29.9696   -1.4639  -26.9752 H   0  0  0  0  0  0
  -30.2440   -0.4425  -39.7710 O   0  0  0  0  0  0
  -30.6332   -0.5347  -38.9013 H   0  0  0  0  0  0
  -30.5398   -1.2169  -40.2496 H   0  0  0  0  0  0
  -15.7440   -5.9425  -25.2710 O   0  0  0  0  0  0
  -15.1143   -6.4800  -25.7515 H   0  0  0  0  0  0
  -15.2654   -5.6467  -24.4966 H   0  0  0  0  0  0
  -15.7440   -5.9425  -25.2710 O   0  0  0  0  0  0
  -16.2245   -6.5722  -24.7335 H   0  0  0  0  0  0
  -14.9696   -6.4211  -25.5668 H   0  0  0  0  0  0
  -18.7440   -5.4425  -28.2710 O   0  0  0  0  0  0
  -18.7440   -6.3691  -28.5110 H   0  0  0  0  0  0
  -18.7440   -5.4425  -27.3138 H   0  0  0  0  0  0
  -18.7440   -5.4425  -28.2710 O   0  0  0  0  0  0
  -18.5040   -5.4425  -27.3444 H   0  0  0  0  0  0
  -19.7012   -5.4425  -28.2710 H   0  0  0  0  0  0
  -18.7440   -5.4425  -28.2710 O   0  0  0  0  0  0
  -19.2815   -4.9620  -27.6413 H   0  0  0  0  0  0
  -18.4482   -6.2169  -27.7924 H   0  0  0  0  0  0
  -18.7440   -5.4425  -28.2710 O   0  0  0  0  0  0
  -19.1332   -5.5347  -27.4013 H   0  0  0  0  0  0
  -19.0398   -6.2169  -28.7496 H   0  0  0  0  0  0
  -18.7440   -5.4425  -28.2710 O   0  0  0  0  0  0
  -19.6137   -5.8317  -28.1788 H   0  0  0  0  0  0
  -18.2654   -5.7383  -27.4966 H   0  0  0  0  0  0
  -16.7440   -9.4425  -21.7710 O   0  0  0  0  0  0
  -16.3548   -9.5347  -22.6407 H   0  0  0  0  0  0
  -16.4482  -10.2169  -21.2924 H   0  0  0  0  0  0
  -16.7440   -9.4425  -21.7710 O   0  0  0  0  0  0
  -15.8743   -9.8317  -21.8632 H   0  0  0  0  0  0
  -17.2226   -9.7383  -22.5454 H   0  0  0  0  0  0
  -16.7440   -9.4425  -21.7710 O   0  0  0  0  0  0
  -16.7440  -10.3691  -21.5310 H   0  0  0  0  0  0
  -16.7440   -9.4425  -22.7282 H   0  0  0  0  0  0
  -19.2440   -6.4425  -31.7710 O   0  0  0  0  0  0
  -18.3174   -6.2025  -31.7710 H   0  0  0  0  0  0
  -19.2440   -7.3997  -31.7710 H   0  0  0  0  0  0
  -19.2440   -6.4425  -31.7710 O   0  0  0  0  0  0
  -18.3743   -6.0533  -31.6788 H   0  0  0  0  0  0
  -19.7226   -6.1467  -30.9966 H   0  0  0  0  0  0
  -19.2440   -6.4425  -31.7710 O   0  0  0  0  0  0
  -18.3743   -6.0533  -31.8632 H   0  0  0  0  0  0
  -19.7226   -6.1467  -32.5454 H   0  0  0  0  0  0
  -24.2440   -7.4425  -31.7710 O   0  0  0  0  0  0
  -23.7065   -7.9230  -32.4007 H   0  0  0  0  0  0
  -24.5398   -6.6681  -32.2496 H   0  0  0  0  0  0
  -24.2440   -7.4425  -31.7710 O   0  0  0  0  0  0
  -25.1137   -7.8317  -31.8632 H   0  0  0  0  0  0
  -23.7654   -7.7383  -32.5454 H   0  0  0  0  0  0
  -24.2440   -7.4425  -31.7710 O   0  0  0  0  0  0
  -23.6143   -6.9050  -31.2905 H   0  0  0  0  0  0
  -23.7654   -7.7383  -32.5454 H   0  0  0  0  0  0
  -22.2440   -7.4425  -31.7710 O   0  0  0  0  0  0
  -22.7815   -7.9230  -32.4007 H   0  0  0  0  0  0
  -21.9482   -6.6681  -32.2496 H   0  0  0  0  0  0
  -22.2440   -7.4425  -31.7710 O   0  0  0  0  0  0
  -21.3743   -7.8317  -31.8632 H   0  0  0  0  0  0
  -22.7226   -7.7383  -32.5454 H   0  0  0  0  0  0
  -22.2440   -7.4425  -31.7710 O   0  0  0  0  0  0
  -22.8737   -6.9050  -31.2905 H   0  0  0  0  0  0
  -22.7226   -7.7383  -32.5454 H   0  0  0  0  0  0
  -31.2440   -3.9425  -31.7710 O   0  0  0  0  0  0
  -31.8737   -3.4050  -31.2905 H   0  0  0  0  0  0
  -31.7226   -4.2383  -32.5454 H   0  0  0  0  0  0
  -31.2440   -3.9425  -31.7710 O   0  0  0  0  0  0
  -31.3362   -4.8122  -31.3818 H   0  0  0  0  0  0
  -32.0184   -3.4639  -31.4752 H   0  0  0  0  0  0
  -31.2440   -3.9425  -31.7710 O   0  0  0  0  0  0
  -30.7635   -3.3128  -32.3085 H   0  0  0  0  0  0
  -32.0184   -3.4639  -31.4752 H   0  0  0  0  0  0
  -18.7440   -8.4425  -25.7710 O   0  0  0  0  0  0
  -18.9840   -8.4425  -24.8444 H   0  0  0  0  0  0
  -17.7868   -8.4425  -25.7710 H   0  0  0  0  0  0
  -18.7440   -8.4425  -25.7710 O   0  0  0  0  0  0
  -19.1332   -8.5347  -24.9013 H   0  0  0  0  0  0
  -19.0398   -9.2169  -26.2496 H   0  0  0  0  0  0
  -18.7440   -8.4425  -25.7710 O   0  0  0  0  0  0
  -19.1332   -8.3503  -24.9013 H   0  0  0  0  0  0
  -19.0398   -7.6681  -26.2496 H   0  0  0  0  0  0
  -18.7440   -8.4425  -25.7710 O   0  0  0  0  0  0
  -17.8743   -8.8317  -25.6788 H   0  0  0  0  0  0
  -19.2226   -8.7383  -24.9966 H   0  0  0  0  0  0
  -18.7440   -8.4425  -25.7710 O   0  0  0  0  0  0
  -19.2815   -8.9230  -25.1413 H   0  0  0  0  0  0
  -18.4482   -7.6681  -25.2924 H   0  0  0  0  0  0
  -30.7440   -0.4425  -29.2710 O   0  0  0  0  0  0
  -30.5040   -0.4425  -28.3444 H   0  0  0  0  0  0
  -31.7012   -0.4425  -29.2710 H   0  0  0  0  0  0
  -18.2440   -7.4425  -32.7710 O   0  0  0  0  0  0
  -18.1518   -6.5728  -32.3818 H   0  0  0  0  0  0
  -17.4696   -7.9211  -32.4752 H   0  0  0  0  0  0
  -18.2440   -7.4425  -32.7710 O   0  0  0  0  0  0
  -17.8548   -7.3503  -31.9013 H   0  0  0  0  0  0
  -17.9482   -6.6681  -33.2496 H   0  0  0  0  0  0
  -18.2440   -7.4425  -32.7710 O   0  0  0  0  0  0
  -18.7245   -6.8128  -33.3085 H   0  0  0  0  0  0
  -17.4696   -6.9639  -32.4752 H   0  0  0  0  0  0
  -18.2440   -7.4425  -32.7710 O   0  0  0  0  0  0
  -17.7635   -6.8128  -32.2335 H   0  0  0  0  0  0
  -19.0184   -6.9639  -33.0668 H   0  0  0  0  0  0
  -20.2440   -7.9425  -25.7710 O   0  0  0  0  0  0
  -21.1137   -8.3317  -25.6788 H   0  0  0  0  0  0
  -19.7654   -8.2383  -24.9966 H   0  0  0  0  0  0
  -20.2440   -7.9425  -25.7710 O   0  0  0  0  0  0
  -19.7065   -8.4230  -25.1413 H   0  0  0  0  0  0
  -20.5398   -7.1681  -25.2924 H   0  0  0  0  0  0
  -20.2440   -7.9425  -25.7710 O   0  0  0  0  0  0
  -19.6143   -7.4050  -26.2515 H   0  0  0  0  0  0
  -19.7654   -8.2383  -24.9966 H   0  0  0  0  0  0
  -30.7440    1.5575  -39.7710 O   0  0  0  0  0  0
  -31.1332    1.4653  -38.9013 H   0  0  0  0  0  0
  -31.0398    0.7831  -40.2496 H   0  0  0  0  0  0
  -30.7440    1.5575  -39.7710 O   0  0  0  0  0  0
  -31.2245    0.9278  -39.2335 H   0  0  0  0  0  0
  -29.9696    1.0789  -40.0668 H   0  0  0  0  0  0
  -30.7440    1.5575  -39.7710 O   0  0  0  0  0  0
  -31.2815    1.0770  -39.1413 H   0  0  0  0  0  0
  -30.4482    2.3319  -39.2924 H   0  0  0  0  0  0
  -30.7440    1.5575  -39.7710 O   0  0  0  0  0  0
  -29.8743    1.1683  -39.6788 H   0  0  0  0  0  0
  -31.2226    1.2617  -38.9966 H   0  0  0  0  0  0
  -30.7440    1.5575  -39.7710 O   0  0  0  0  0  0
  -31.3737    1.0200  -39.2905 H   0  0  0  0  0  0
  -31.2226    1.8533  -40.5454 H   0  0  0  0  0  0
  -27.2440   -6.9425  -39.7710 O   0  0  0  0  0  0
  -26.6143   -7.4800  -40.2515 H   0  0  0  0  0  0
  -26.7654   -6.6467  -38.9966 H   0  0  0  0  0  0
  -27.2440   -6.9425  -39.7710 O   0  0  0  0  0  0
  -27.1518   -7.8122  -39.3818 H   0  0  0  0  0  0
  -26.4696   -6.4639  -39.4752 H   0  0  0  0  0  0
  -27.2440   -6.9425  -39.7710 O   0  0  0  0  0  0
  -26.3743   -6.5533  -39.6788 H   0  0  0  0  0  0
  -27.7226   -6.6467  -38.9966 H   0  0  0  0  0  0
  -27.2440   -6.9425  -39.7710 O   0  0  0  0  0  0
  -26.6143   -6.4050  -39.2905 H   0  0  0  0  0  0
  -26.7654   -7.2383  -40.5454 H   0  0  0  0  0  0
  -28.7440   -2.9425  -27.2710 O   0  0  0  0  0  0
  -28.7440   -2.0159  -27.0310 H   0  0  0  0  0  0
  -28.7440   -2.9425  -28.2282 H   0  0  0  0  0  0
  -28.7440   -2.9425  -27.2710 O   0  0  0  0  0  0
  -29.6706   -3.1825  -27.2710 H   0  0  0  0  0  0
  -28.7440   -1.9853  -27.2710 H   0  0  0  0  0  0
  -31.2440   -3.9425  -30.2710 O   0  0  0  0  0  0
  -31.8737   -3.4050  -30.7515 H   0  0  0  0  0  0
  -31.7226   -4.2383  -29.4966 H   0  0  0  0  0  0
  -31.2440   -3.9425  -30.2710 O   0  0  0  0  0  0
  -31.3362   -4.8122  -30.6602 H   0  0  0  0  0  0
  -32.0184   -3.4639  -30.5668 H   0  0  0  0  0  0
  -31.2440   -3.9425  -30.2710 O   0  0  0  0  0  0
  -30.7635   -3.3128  -29.7335 H   0  0  0  0  0  0
  -32.0184   -3.4639  -30.5668 H   0  0  0  0  0  0
  -31.2440   -3.9425  -30.2710 O   0  0  0  0  0  0
  -32.1137   -3.5533  -30.3632 H   0  0  0  0  0  0
  -30.7654   -3.6467  -31.0454 H   0  0  0  0  0  0
  -24.2440   -3.4425  -21.2710 O   0  0  0  0  0  0
  -24.6332   -3.3503  -20.4013 H   0  0  0  0  0  0
  -24.5398   -2.6681  -21.7496 H   0  0  0  0  0  0
  -24.2440   -3.4425  -21.2710 O   0  0  0  0  0  0
  -24.3362   -2.5728  -20.8818 H   0  0  0  0  0  0
  -25.0184   -3.9211  -20.9752 H   0  0  0  0  0  0
  -24.2440   -3.4425  -21.2710 O   0  0  0  0  0  0
  -24.6332   -3.3503  -22.1407 H   0  0  0  0  0  0
  -24.5398   -2.6681  -20.7924 H   0  0  0  0  0  0
  -21.7440   -2.9425  -27.7710 O   0  0  0  0  0  0
  -21.3548   -2.8503  -26.9013 H   0  0  0  0  0  0
  -21.4482   -2.1681  -28.2496 H   0  0  0  0  0  0
  -21.7440   -2.9425  -27.7710 O   0  0  0  0  0  0
  -22.2245   -2.3128  -27.2335 H   0  0  0  0  0  0
  -20.9696   -2.4639  -28.0668 H   0  0  0  0  0  0
  -21.7440   -2.9425  -27.7710 O   0  0  0  0  0  0
  -20.8743   -2.5533  -27.6788 H   0  0  0  0  0  0
  -22.2226   -2.6467  -26.9966 H   0  0  0  0  0  0
  -19.2440   -6.9425  -25.2710 O   0  0  0  0  0  0
  -18.7065   -6.4620  -24.6413 H   0  0  0  0  0  0
  -19.5398   -7.7169  -24.7924 H   0  0  0  0  0  0
  -19.2440   -6.9425  -25.2710 O   0  0  0  0  0  0
  -19.3362   -7.8122  -24.8818 H   0  0  0  0  0  0
  -20.0184   -6.4639  -24.9752 H   0  0  0  0  0  0
  -19.2440   -6.9425  -25.2710 O   0  0  0  0  0  0
  -19.7245   -7.5722  -24.7335 H   0  0  0  0  0  0
  -18.4696   -7.4211  -25.5668 H   0  0  0  0  0  0
  -19.2440   -6.9425  -25.2710 O   0  0  0  0  0  0
  -19.1518   -7.8122  -24.8818 H   0  0  0  0  0  0
  -18.4696   -6.4639  -24.9752 H   0  0  0  0  0  0
  -18.2440   -7.9425  -31.2710 O   0  0  0  0  0  0
  -18.7245   -7.3128  -30.7335 H   0  0  0  0  0  0
  -17.4696   -7.4639  -31.5668 H   0  0  0  0  0  0
  -18.2440   -7.9425  -31.2710 O   0  0  0  0  0  0
  -17.8548   -7.8503  -30.4013 H   0  0  0  0  0  0
  -17.9482   -7.1681  -31.7496 H   0  0  0  0  0  0
  -18.2440   -7.9425  -31.2710 O   0  0  0  0  0  0
  -17.3174   -8.1825  -31.2710 H   0  0  0  0  0  0
  -18.2440   -6.9853  -31.2710 H   0  0  0  0  0  0
  -18.2440   -7.9425  -31.2710 O   0  0  0  0  0  0
  -17.6143   -7.4050  -31.7515 H   0  0  0  0  0  0
  -17.7654   -8.2383  -30.4966 H   0  0  0  0  0  0
  -29.2440   -7.4425  -19.2710 O   0  0  0  0  0  0
  -29.6332   -7.3503  -18.4013 H   0  0  0  0  0  0
  -29.5398   -6.6681  -19.7496 H   0  0  0  0  0  0
  -29.2440   -7.4425  -19.2710 O   0  0  0  0  0  0
  -29.7245   -6.8128  -19.8085 H   0  0  0  0  0  0
  -28.4696   -6.9639  -18.9752 H   0  0  0  0  0  0
  -29.2440   -7.4425  -19.2710 O   0  0  0  0  0  0
  -29.3362   -6.5728  -19.6602 H   0  0  0  0  0  0
  -30.0184   -7.9211  -19.5668 H   0  0  0  0  0  0
  -29.2440   -7.4425  -19.2710 O   0  0  0  0  0  0
  -29.8737   -6.9050  -19.7515 H   0  0  0  0  0  0
  -29.7226   -7.7383  -18.4966 H   0  0  0  0  0  0
  -29.2440   -7.4425  -19.2710 O   0  0  0  0  0  0
  -28.7635   -6.8128  -18.7335 H   0  0  0  0  0  0
  -30.0184   -6.9639  -19.5668 H   0  0  0  0  0  0
  -24.7440   -4.4425  -20.2710 O   0  0  0  0  0  0
  -25.1332   -4.3503  -21.1407 H   0  0  0  0  0  0
  -25.0398   -3.6681  -19.7924 H   0  0  0  0  0  0
  -24.7440   -4.4425  -20.2710 O   0  0  0  0  0  0
  -24.8362   -3.5728  -19.8818 H   0  0  0  0  0  0
  -25.5184   -4.9211  -19.9752 H   0  0  0  0  0  0
  -24.7440   -4.4425  -20.2710 O   0  0  0  0  0  0
  -24.2065   -4.9230  -19.6413 H   0  0  0  0  0  0
  -25.0398   -3.6681  -19.7924 H   0  0  0  0  0  0
  -17.7440   -7.4425  -24.7710 O   0  0  0  0  0  0
  -17.8362   -6.5728  -24.3818 H   0  0  0  0  0  0
  -18.5184   -7.9211  -24.4752 H   0  0  0  0  0  0
  -17.7440   -7.4425  -24.7710 O   0  0  0  0  0  0
  -18.3737   -7.9800  -24.2905 H   0  0  0  0  0  0
  -18.2226   -7.1467  -25.5454 H   0  0  0  0  0  0
  -17.7440   -7.4425  -24.7710 O   0  0  0  0  0  0
  -18.6137   -7.8317  -24.6788 H   0  0  0  0  0  0
  -17.2654   -7.7383  -23.9966 H   0  0  0  0  0  0
  -17.7440   -7.4425  -24.7710 O   0  0  0  0  0  0
  -18.2245   -8.0722  -24.2335 H   0  0  0  0  0  0
  -16.9696   -7.9211  -25.0668 H   0  0  0  0  0  0
  -17.7440   -7.4425  -24.7710 O   0  0  0  0  0  0
  -18.2815   -7.9230  -24.1413 H   0  0  0  0  0  0
  -17.4482   -6.6681  -24.2924 H   0  0  0  0  0  0
  -22.7440   -5.9425  -32.7710 O   0  0  0  0  0  0
  -23.2245   -6.5722  -33.3085 H   0  0  0  0  0  0
  -21.9696   -6.4211  -32.4752 H   0  0  0  0  0  0
  -22.7440   -5.9425  -32.7710 O   0  0  0  0  0  0
  -22.2065   -5.4620  -33.4007 H   0  0  0  0  0  0
  -23.0398   -6.7169  -33.2496 H   0  0  0  0  0  0
  -22.7440   -5.9425  -32.7710 O   0  0  0  0  0  0
  -22.8362   -6.8122  -33.1602 H   0  0  0  0  0  0
  -23.5184   -5.4639  -33.0668 H   0  0  0  0  0  0
  -22.7440   -5.9425  -32.7710 O   0  0  0  0  0  0
  -23.1332   -6.0347  -31.9013 H   0  0  0  0  0  0
  -23.0398   -6.7169  -33.2496 H   0  0  0  0  0  0
  -17.7440   -7.9425  -37.7710 O   0  0  0  0  0  0
  -18.2245   -7.3128  -37.2335 H   0  0  0  0  0  0
  -16.9696   -7.4639  -38.0668 H   0  0  0  0  0  0
  -17.2440   -8.9425  -24.2710 O   0  0  0  0  0  0
  -17.3362   -9.8122  -23.8818 H   0  0  0  0  0  0
  -18.0184   -8.4639  -23.9752 H   0  0  0  0  0  0
  -17.2440   -8.9425  -24.2710 O   0  0  0  0  0  0
  -16.7635   -8.3128  -24.8085 H   0  0  0  0  0  0
  -18.0184   -8.4639  -23.9752 H   0  0  0  0  0  0
  -17.2440   -8.9425  -24.2710 O   0  0  0  0  0  0
  -18.1706   -8.7025  -24.2710 H   0  0  0  0  0  0
  -17.2440   -9.8997  -24.2710 H   0  0  0  0  0  0
  -17.2440   -8.9425  -24.2710 O   0  0  0  0  0  0
  -18.1137   -8.5533  -24.1788 H   0  0  0  0  0  0
  -16.7654   -8.6467  -23.4966 H   0  0  0  0  0  0
  -24.2440   -2.4425  -24.7710 O   0  0  0  0  0  0
  -24.1518   -1.5728  -25.1602 H   0  0  0  0  0  0
  -23.4696   -2.9211  -25.0668 H   0  0  0  0  0  0
  -24.2440   -2.4425  -24.7710 O   0  0  0  0  0  0
  -24.7815   -2.9230  -25.4007 H   0  0  0  0  0  0
  -23.9482   -1.6681  -25.2496 H   0  0  0  0  0  0
  -25.7440   -7.9425  -40.2710 O   0  0  0  0  0  0
  -26.2815   -8.4230  -39.6413 H   0  0  0  0  0  0
  -25.4482   -7.1681  -39.7924 H   0  0  0  0  0  0
  -25.7440   -7.9425  -40.2710 O   0  0  0  0  0  0
  -25.6518   -7.0728  -39.8818 H   0  0  0  0  0  0
  -24.9696   -8.4211  -39.9752 H   0  0  0  0  0  0
  -25.7440   -7.9425  -40.2710 O   0  0  0  0  0  0
  -25.2065   -8.4230  -39.6413 H   0  0  0  0  0  0
  -26.0398   -7.1681  -39.7924 H   0  0  0  0  0  0
  -25.7440   -7.9425  -40.2710 O   0  0  0  0  0  0
  -25.7440   -7.0159  -40.5110 H   0  0  0  0  0  0
  -25.7440   -7.9425  -39.3138 H   0  0  0  0  0  0
  -23.7440   -3.4425  -26.2710 O   0  0  0  0  0  0
  -22.8174   -3.6825  -26.2710 H   0  0  0  0  0  0
  -23.7440   -2.4853  -26.2710 H   0  0  0  0  0  0
  -23.7440   -3.4425  -26.2710 O   0  0  0  0  0  0
  -23.7440   -2.5159  -26.5110 H   0  0  0  0  0  0
  -23.7440   -3.4425  -25.3138 H   0  0  0  0  0  0
  -23.7440   -3.4425  -26.2710 O   0  0  0  0  0  0
  -23.7440   -2.5159  -26.0310 H   0  0  0  0  0  0
  -23.7440   -3.4425  -27.2282 H   0  0  0  0  0  0
  -23.7440   -3.4425  -26.2710 O   0  0  0  0  0  0
  -24.6706   -3.6825  -26.2710 H   0  0  0  0  0  0
  -23.7440   -2.4853  -26.2710 H   0  0  0  0  0  0
  -23.2440   -9.4425  -31.7710 O   0  0  0  0  0  0
  -22.7065   -9.9230  -32.4007 H   0  0  0  0  0  0
  -23.5398   -8.6681  -32.2496 H   0  0  0  0  0  0
  -23.2440   -9.4425  -31.7710 O   0  0  0  0  0  0
  -23.7815   -9.9230  -32.4007 H   0  0  0  0  0  0
  -22.9482   -8.6681  -32.2496 H   0  0  0  0  0  0
  -23.2440   -9.4425  -31.7710 O   0  0  0  0  0  0
  -23.1518   -8.5728  -32.1602 H   0  0  0  0  0  0
  -22.4696   -9.9211  -32.0668 H   0  0  0  0  0  0
  -23.2440   -9.4425  -31.7710 O   0  0  0  0  0  0
  -23.3362   -8.5728  -32.1602 H   0  0  0  0  0  0
  -24.0184   -9.9211  -32.0668 H   0  0  0  0  0  0
  -23.2440   -9.4425  -31.7710 O   0  0  0  0  0  0
  -23.2440   -8.5159  -31.5310 H   0  0  0  0  0  0
  -23.2440   -9.4425  -32.7282 H   0  0  0  0  0  0
  -16.2440   -9.4425  -40.2710 O   0  0  0  0  0  0
  -16.6332   -9.3503  -39.4013 H   0  0  0  0  0  0
  -16.5398   -8.6681  -40.7496 H   0  0  0  0  0  0
  -16.2440   -9.4425  -40.2710 O   0  0  0  0  0  0
  -16.3362   -8.5728  -40.6602 H   0  0  0  0  0  0
  -17.0184   -9.9211  -40.5668 H   0  0  0  0  0  0
  -16.2440   -9.4425  -40.2710 O   0  0  0  0  0  0
  -15.7065   -9.9230  -40.9007 H   0  0  0  0  0  0
  -16.5398   -8.6681  -40.7496 H   0  0  0  0  0  0
  -17.2440   -3.4425  -26.2710 O   0  0  0  0  0  0
  -17.1518   -2.5728  -25.8818 H   0  0  0  0  0  0
  -16.4696   -3.9211  -25.9752 H   0  0  0  0  0  0
  -17.2440   -3.4425  -26.2710 O   0  0  0  0  0  0
  -17.1518   -4.3122  -25.8818 H   0  0  0  0  0  0
  -16.4696   -2.9639  -25.9752 H   0  0  0  0  0  0
  -27.7440   -3.9425  -33.7710 O   0  0  0  0  0  0
  -28.3737   -3.4050  -33.2905 H   0  0  0  0  0  0
  -28.2226   -4.2383  -34.5454 H   0  0  0  0  0  0
  1  2  1  0  0  0
  1  3  1  0  0  0
  4  5  1  0  0  0
  4  6  1  0  0  0
  7  8  1  0  0  0
  7  9  1  0  0  0
 10 11  1  0  0  0
 10 12  1  0  0  0
 13 14  1  0  0  0
 13 15  1  0  0  0
 16 17  1  0  0  0
 16 18  1  0  0  0
 19 20  1  0  0  0
 19 21  1  0  0  0
 22 23  1  0  0  0
 22 24  1  0  0  0
 25 26  1  0  0  0
 25 27  1  0  0  0
 28 29  1  0  0  0
 28 30  1  0  0  0
 31 32  1  0  0  0
 31 33  1  0  0  0
 34 35  1  0  0  0
 34 36  1  0  0  0
 37 38  1  0  0  0
 37 39  1  0  0  0
 40 41  1  0  0  0
 40 42  1  0  0  0
 43 44  1  0  0  0
 43 45  1  0  0  0
 46 47  1  0  0  0
 46 48  1  0  0  0
 49 50  1  0  0  0
 49 51  1  0  0  0
 52 53  1  0  0  0
 52 54  1  0  0  0
 55 56  1  0  0  0
 55 57  1  0  0  0
 58 59  1  0  0  0
 58 60  1  0  0  0
 61 62  1  0  0  0
 61 63  1  0  0  0
 64 65  1  0  0  0
 64 66  1  0  0  0
 67 68  1  0  0  0
 67 69  1  0  0  0
 70 71  1  0  0  0
 70 72  1  0  0  0
 73 74  1  0  0  0
 73 75  1  0  0  0
 76 77  1  0  0  0
 76 78  1  0  0  0
 79 80  1  0  0  0
 79 81  1  0  0  0
 82 83  1  0  0  0
 82 84  1  0  0  0
 85 86  1  0  0  0
 85 87  1  0  0  0
 88 89  1  0  0  0
 88 90  1  0  0  0
 91 92  1  0  0  0
 91 93  1  0  0  0
 94 95  1  0  0  0
 94 96  1  0  0  0
 97 98  1  0  0  0
 97 99  1  0  0  0
100101  1  0  0  0
100102  1  0  0  0
103104  1  0  0  0
103105  1  0  0  0
106107  1  0  0  0
106108  1  0  0  0
109110  1  0  0  0
109111  1  0  0  0
112113  1  0  0  0
112114  1  0  0  0
115116  1  0  0  0
115117  1  0  0  0
118119  1  0  0  0
118120  1  0  0  0
121122  1  0  0  0
121123  1  0  0  0
124125  1  0  0  0
124126  1  0  0  0
127128  1  0  0  0
127129  1  0  0  0
130131  1  0  0  0
130132  1  0  0  0
133134  1  0  0  0
133135  1  0  0  0
136137  1  0  0  0
136138  1  0  0  0
139140  1  0  0  0
139141  1  0  0  0
142143  1  0  0  0
142144  1  0  0  0
145146  1  0  0  0
145147  1  0  0  0
148149  1  0  0  0
148150  1  0  0  0
151152  1  0  0  0
151153  1  0  0  0
154155  1  0  0  0
154156  1  0  0  0
157158  1  0  0  0
157159  1  0  0  0
160161  1  0  0  0
160162  1  0  0  0
163164  1  0  0  0
163165  1  0  0  0
166167  1  0  0  0
166168  1  0  0  0
169170  1  0  0  0
169171  1  0  0  0
172173  1  0  0  0
172174  1  0  0  0
175176  1  0  0  0
175177  1  0  0  0
178179  1  0  0  0
178180  1  0  0  0
181182  1  0  0  0
181183  1  0  0  0
184185  1  0  0  0
184186  1  0  0  0
187188  1  0  0  0
187189  1  0  0  0
190191  1  0  0  0
190192  1  0  0  0
193194  1  0  0  0
193195  1  0  0  0
196197  1  0  0  0
196198  1  0  0  0
199200  1  0  0  0
199201  1  0  0  0
202203  1  0  0  0
202204  1  0  0  0
205206  1  0  0  0
205207  1  0  0  0
208209  1  0  0  0
208210  1  0  0  0
211212  1  0  0  0
211213  1  0  0  0
214215  1  0  0  0
214216  1  0  0  0
217218  1  0  0  0
217219  1  0  0  0
220221  1  0  0  0
220222  1  0  0  0
223224  1  0  0  0
223225  1  0  0  0
226227  1  0  0  0
226228  1  0  0  0
229230  1  0  0  0
229231  1  0  0  0
232233  1  0  0  0
232234  1  0  0  0
235236  1  0  0  0
235237  1  0  0  0
238239  1  0  0  0
238240  1  0  0  0
241242  1  0  0  0
241243  1  0  0  0
244245  1  0  0  0
244246  1  0  0  0
247248  1  0  0  0
247249  1  0  0  0
250251  1  0  0  0
250252  1  0  0  0
253254  1  0  0  0
253255  1  0  0  0
256257  1  0  0  0
256258  1  0  0  0
259260  1  0  0  0
259261  1  0  0  0
262263  1  0  0  0
262264  1  0  0  0
265266  1  0  0  0
265267  1  0  0  0
268269  1  0  0  0
268270  1  0  0  0
271272  1  0  0  0
271273  1  0  0  0
274275  1  0  0  0
274276  1  0  0  0
277278  1  0  0  0
277279  1  0  0  0
280281  1  0  0  0
280282  1  0  0  0
283284  1  0  0  0
283285  1  0  0  0
286287  1  0  0  0
286288  1  0  0  0
289290  1  0  0  0
289291  1  0  0  0
292293  1  0  0  0
292294  1  0  0  0
295296  1  0  0  0
295297  1  0  0  0
298299  1  0  0  0
298300  1  0  0  0
301302  1  0  0  0
301303  1  0  0  0
304305  1  0  0  0
304306  1  0  0  0
307308  1  0  0  0
307309  1  0  0  0
310311  1  0  0  0
310312  1  0  0  0
313314  1  0  0  0
313315  1  0  0  0
316317  1  0  0  0
316318  1  0  0  0
319320  1  0  0  0
319321  1  0  0  0
322323  1  0  0  0
322324  1  0  0  0
325326  1  0  0  0
325327  1  0  0  0
328329  1  0  0  0
328330  1  0  0  0
331332  1  0  0  0
331333  1  0  0  0
334335  1  0  0  0
334336  1  0  0  0
337338  1  0  0  0
337339  1  0  0  0
340341  1  0  0  0
340342  1  0  0  0
343344  1  0  0  0
343345  1  0  0  0
346347  1  0  0  0
346348  1  0  0  0
349350  1  0  0  0
349351  1  0  0  0
352353  1  0  0  0
352354  1  0  0  0
355356  1  0  0  0
355357  1  0  0  0
358359  1  0  0  0
358360  1  0  0  0
361362  1  0  0  0
361363  1  0  0  0
364365  1  0  0  0
364366  1  0  0  0
367368  1  0  0  0
367369  1  0  0  0
370371  1  0  0  0
370372  1  0  0  0
373374  1  0  0  0
373375  1  0  0  0
376377  1  0  0  0
376378  1  0  0  0
379380  1  0  0  0
379381  1  0  0  0
382383  1  0  0  0
382384  1  0  0  0
385386  1  0  0  0
385387  1  0  0  0
388389  1  0  0  0
388390  1  0  0  0
391392  1  0  0  0
391393  1  0  0  0
394395  1  0  0  0
394396  1  0  0  0
397398  1  0  0  0
397399  1  0  0  0
400401  1  0  0  0
400402  1  0  0  0
403404  1  0  0  0
403405  1  0  0  0
406407  1  0  0  0
406408  1  0  0  0
409410  1  0  0  0
409411  1  0  0  0
412413  1  0  0  0
412414  1  0  0  0
415416  1  0  0  0
415417  1  0  0  0
418419  1  0  0  0
418420  1  0  0  0
421422  1  0  0  0
421423  1  0  0  0
424425  1  0  0  0
424426  1  0  0  0
427428  1  0  0  0
427429  1  0  0  0
430431  1  0  0  0
430432  1  0  0  0
433434  1  0  0  0
433435  1  0  0  0
436437  1  0  0  0
436438  1  0  0  0
439440  1  0  0  0
439441  1  0  0  0
442443  1  0  0  0
442444  1  0  0  0
445446  1  0  0  0
445447  1  0  0  0
448449  1  0  0  0
448450  1  0  0  0
451452  1  0  0  0
451453  1  0  0  0
454455  1  0  0  0
454456  1  0  0  0
457458  1  0  0  0
457459  1  0  0  0
460461  1  0  0  0
460462  1  0  0  0
463464  1  0  0  0
463465  1  0  0  0
466467  1  0  0  0
466468  1  0  0  0
469470  1  0  0  0
469471  1  0  0  0
472473  1  0  0  0
472474  1  0  0  0
475476  1  0  0  0
475477  1  0  0  0
M  END
> <s_m_entry_id>
2144

> <s_m_entry_name>
SZMAP_Mpro_7UU9.6_merged159

> <s_m_Source_Path>
C:\Users\ifige\Documents\lab_projects\Mpro\szmap\7UU9\SZMAP_7UU9

> <s_m_Source_File>
SZMAP_Mpro_7UU9.mae

> <i_m_Source_File_Index>
6

> <szmap_neut_diff_free_energy>
-10.692

> <szmap_vdw>
11.278

> <szmap_order>
0.516

> <szmap_probability>
0.333

$$$$
