8igo_yellow_waters
                    3D
 Structure written by MMmdl.
444296  0  0  1  0            999 V2000
  -28.2440   -7.9425  -27.7710 O   0  0  0  0  0  0
  -27.3174   -8.1825  -27.7710 H   0  0  0  0  0  0
  -28.2440   -6.9853  -27.7710 H   0  0  0  0  0  0
  -28.2440   -7.9425  -27.7710 O   0  0  0  0  0  0
  -27.6143   -7.4050  -28.2515 H   0  0  0  0  0  0
  -27.7654   -8.2383  -26.9966 H   0  0  0  0  0  0
  -21.2440   -5.4425  -36.7710 O   0  0  0  0  0  0
  -20.8548   -5.5347  -35.9013 H   0  0  0  0  0  0
  -20.9482   -6.2169  -37.2496 H   0  0  0  0  0  0
  -13.2440   -7.9425  -24.2710 O   0  0  0  0  0  0
  -13.6332   -7.8503  -25.1407 H   0  0  0  0  0  0
  -13.5398   -7.1681  -23.7924 H   0  0  0  0  0  0
  -22.7440   -8.9425  -31.2710 O   0  0  0  0  0  0
  -22.6518   -9.8122  -30.8818 H   0  0  0  0  0  0
  -21.9696   -8.4639  -30.9752 H   0  0  0  0  0  0
  -22.7440   -8.9425  -31.2710 O   0  0  0  0  0  0
  -22.9840   -8.9425  -30.3444 H   0  0  0  0  0  0
  -21.7868   -8.9425  -31.2710 H   0  0  0  0  0  0
  -22.7440   -8.9425  -31.2710 O   0  0  0  0  0  0
  -22.6518   -8.0728  -30.8818 H   0  0  0  0  0  0
  -21.9696   -9.4211  -30.9752 H   0  0  0  0  0  0
  -31.2440   -6.9425  -22.2710 O   0  0  0  0  0  0
  -30.6143   -7.4800  -21.7905 H   0  0  0  0  0  0
  -30.7654   -6.6467  -23.0454 H   0  0  0  0  0  0
  -31.2440   -6.9425  -22.2710 O   0  0  0  0  0  0
  -30.8548   -7.0347  -23.1407 H   0  0  0  0  0  0
  -30.9482   -7.7169  -21.7924 H   0  0  0  0  0  0
  -31.2440   -6.9425  -22.2710 O   0  0  0  0  0  0
  -30.6143   -7.4800  -22.7515 H   0  0  0  0  0  0
  -30.7654   -6.6467  -21.4966 H   0  0  0  0  0  0
  -13.2440  -10.9425  -27.2710 O   0  0  0  0  0  0
  -13.6332  -10.8503  -26.4013 H   0  0  0  0  0  0
  -13.5398  -10.1681  -27.7496 H   0  0  0  0  0  0
  -13.2440  -10.9425  -27.2710 O   0  0  0  0  0  0
  -13.7245  -10.3128  -27.8085 H   0  0  0  0  0  0
  -12.4696  -10.4639  -26.9752 H   0  0  0  0  0  0
  -21.2440  -11.4425  -20.7710 O   0  0  0  0  0  0
  -20.3743  -11.8317  -20.6788 H   0  0  0  0  0  0
  -21.7226  -11.7383  -19.9966 H   0  0  0  0  0  0
  -21.2440  -11.4425  -20.7710 O   0  0  0  0  0  0
  -22.1137  -11.8317  -20.6788 H   0  0  0  0  0  0
  -20.7654  -11.7383  -19.9966 H   0  0  0  0  0  0
  -21.2440  -11.4425  -20.7710 O   0  0  0  0  0  0
  -21.2440  -12.3691  -21.0110 H   0  0  0  0  0  0
  -21.2440  -11.4425  -19.8138 H   0  0  0  0  0  0
  -26.7440   -9.4425  -32.2710 O   0  0  0  0  0  0
  -26.8362  -10.3122  -31.8818 H   0  0  0  0  0  0
  -27.5184   -8.9639  -31.9752 H   0  0  0  0  0  0
  -26.7440   -9.4425  -32.2710 O   0  0  0  0  0  0
  -27.3737   -9.9800  -32.7515 H   0  0  0  0  0  0
  -27.2226   -9.1467  -31.4966 H   0  0  0  0  0  0
  -26.7440   -9.4425  -32.2710 O   0  0  0  0  0  0
  -26.5040   -9.4425  -31.3444 H   0  0  0  0  0  0
  -27.7012   -9.4425  -32.2710 H   0  0  0  0  0  0
  -26.7440   -9.4425  -32.2710 O   0  0  0  0  0  0
  -27.6706   -9.2025  -32.2710 H   0  0  0  0  0  0
  -26.7440  -10.3997  -32.2710 H   0  0  0  0  0  0
  -13.7440   -9.9425  -25.7710 O   0  0  0  0  0  0
  -13.7440   -9.0159  -25.5310 H   0  0  0  0  0  0
  -13.7440   -9.9425  -26.7282 H   0  0  0  0  0  0
  -20.7440  -10.9425  -25.2710 O   0  0  0  0  0  0
  -20.2065  -10.4620  -25.9007 H   0  0  0  0  0  0
  -21.0398  -11.7169  -25.7496 H   0  0  0  0  0  0
  -20.7440  -10.9425  -25.2710 O   0  0  0  0  0  0
  -21.2815  -11.4230  -25.9007 H   0  0  0  0  0  0
  -20.4482  -10.1681  -25.7496 H   0  0  0  0  0  0
  -20.7440  -10.9425  -25.2710 O   0  0  0  0  0  0
  -20.6518  -11.8122  -25.6602 H   0  0  0  0  0  0
  -19.9696  -10.4639  -25.5668 H   0  0  0  0  0  0
  -20.7440  -10.9425  -25.2710 O   0  0  0  0  0  0
  -20.2065  -11.4230  -25.9007 H   0  0  0  0  0  0
  -21.0398  -10.1681  -25.7496 H   0  0  0  0  0  0
  -20.7440  -10.9425  -25.2710 O   0  0  0  0  0  0
  -20.6518  -10.0728  -25.6602 H   0  0  0  0  0  0
  -19.9696  -11.4211  -25.5668 H   0  0  0  0  0  0
  -13.7440  -10.9425  -28.7710 O   0  0  0  0  0  0
  -13.6518  -10.0728  -28.3818 H   0  0  0  0  0  0
  -12.9696  -11.4211  -28.4752 H   0  0  0  0  0  0
  -13.7440  -10.9425  -28.7710 O   0  0  0  0  0  0
  -13.8362  -10.0728  -28.3818 H   0  0  0  0  0  0
  -14.5184  -11.4211  -28.4752 H   0  0  0  0  0  0
  -13.7440  -10.9425  -28.7710 O   0  0  0  0  0  0
  -13.7440  -10.0159  -28.5310 H   0  0  0  0  0  0
  -13.7440  -10.9425  -29.7282 H   0  0  0  0  0  0
  -17.2440   -9.4425  -21.7710 O   0  0  0  0  0  0
  -16.8548   -9.5347  -22.6407 H   0  0  0  0  0  0
  -16.9482  -10.2169  -21.2924 H   0  0  0  0  0  0
  -17.2440   -9.4425  -21.7710 O   0  0  0  0  0  0
  -17.2440  -10.3691  -21.5310 H   0  0  0  0  0  0
  -17.2440   -9.4425  -22.7282 H   0  0  0  0  0  0
  -17.2440   -9.4425  -21.7710 O   0  0  0  0  0  0
  -17.7245  -10.0722  -22.3085 H   0  0  0  0  0  0
  -16.4696   -9.9211  -21.4752 H   0  0  0  0  0  0
  -27.7440   -2.9425  -40.2710 O   0  0  0  0  0  0
  -28.1332   -3.0347  -41.1407 H   0  0  0  0  0  0
  -28.0398   -3.7169  -39.7924 H   0  0  0  0  0  0
  -15.7440   -6.9425  -24.7710 O   0  0  0  0  0  0
  -15.1143   -6.4050  -24.2905 H   0  0  0  0  0  0
  -15.2654   -7.2383  -25.5454 H   0  0  0  0  0  0
  -27.2440   -4.9425  -19.2710 O   0  0  0  0  0  0
  -26.3174   -4.7025  -19.2710 H   0  0  0  0  0  0
  -27.2440   -5.8997  -19.2710 H   0  0  0  0  0  0
  -27.2440   -4.9425  -19.2710 O   0  0  0  0  0  0
  -26.8548   -5.0347  -20.1407 H   0  0  0  0  0  0
  -26.9482   -5.7169  -18.7924 H   0  0  0  0  0  0
  -27.2440   -4.9425  -19.2710 O   0  0  0  0  0  0
  -27.7245   -5.5722  -18.7335 H   0  0  0  0  0  0
  -26.4696   -5.4211  -19.5668 H   0  0  0  0  0  0
  -22.2440   -2.4425  -27.7710 O   0  0  0  0  0  0
  -21.3174   -2.6825  -27.7710 H   0  0  0  0  0  0
  -22.2440   -1.4853  -27.7710 H   0  0  0  0  0  0
  -19.2440   -3.4425  -22.7710 O   0  0  0  0  0  0
  -19.1518   -4.3122  -23.1602 H   0  0  0  0  0  0
  -18.4696   -2.9639  -23.0668 H   0  0  0  0  0  0
  -15.2440  -10.4425  -26.7710 O   0  0  0  0  0  0
  -15.7245   -9.8128  -26.2335 H   0  0  0  0  0  0
  -14.4696   -9.9639  -27.0668 H   0  0  0  0  0  0
  -15.2440  -10.4425  -26.7710 O   0  0  0  0  0  0
  -14.6143   -9.9050  -27.2515 H   0  0  0  0  0  0
  -14.7654  -10.7383  -25.9966 H   0  0  0  0  0  0
  -15.2440  -10.4425  -26.7710 O   0  0  0  0  0  0
  -14.7635   -9.8128  -27.3085 H   0  0  0  0  0  0
  -16.0184   -9.9639  -26.4752 H   0  0  0  0  0  0
  -25.7440    2.5575  -37.2710 O   0  0  0  0  0  0
  -25.5040    2.5575  -36.3444 H   0  0  0  0  0  0
  -26.7012    2.5575  -37.2710 H   0  0  0  0  0  0
  -19.2440   -5.4425  -29.2710 O   0  0  0  0  0  0
  -18.7635   -6.0722  -29.8085 H   0  0  0  0  0  0
  -20.0184   -5.9211  -28.9752 H   0  0  0  0  0  0
  -19.2440   -5.4425  -29.2710 O   0  0  0  0  0  0
  -19.6332   -5.5347  -30.1407 H   0  0  0  0  0  0
  -19.5398   -6.2169  -28.7924 H   0  0  0  0  0  0
  -19.2440   -5.4425  -29.2710 O   0  0  0  0  0  0
  -20.1706   -5.2025  -29.2710 H   0  0  0  0  0  0
  -19.2440   -6.3997  -29.2710 H   0  0  0  0  0  0
  -19.2440   -5.4425  -29.2710 O   0  0  0  0  0  0
  -19.6332   -5.5347  -28.4013 H   0  0  0  0  0  0
  -19.5398   -6.2169  -29.7496 H   0  0  0  0  0  0
  -14.2440   -9.4425  -30.2710 O   0  0  0  0  0  0
  -13.8548   -9.3503  -29.4013 H   0  0  0  0  0  0
  -13.9482   -8.6681  -30.7496 H   0  0  0  0  0  0
  -12.2440   -5.9425  -36.7710 O   0  0  0  0  0  0
  -11.8548   -6.0347  -35.9013 H   0  0  0  0  0  0
  -11.9482   -6.7169  -37.2496 H   0  0  0  0  0  0
  -27.2440   -6.4425  -40.2710 O   0  0  0  0  0  0
  -28.1137   -6.0533  -40.1788 H   0  0  0  0  0  0
  -26.7654   -6.1467  -39.4966 H   0  0  0  0  0  0
  -20.7440   -4.4425  -23.2710 O   0  0  0  0  0  0
  -21.6137   -4.8317  -23.3632 H   0  0  0  0  0  0
  -20.2654   -4.7383  -24.0454 H   0  0  0  0  0  0
  -20.7440   -4.4425  -23.2710 O   0  0  0  0  0  0
  -20.5040   -4.4425  -24.1976 H   0  0  0  0  0  0
  -21.7012   -4.4425  -23.2710 H   0  0  0  0  0  0
  -20.7440   -4.4425  -23.2710 O   0  0  0  0  0  0
  -20.9840   -4.4425  -24.1976 H   0  0  0  0  0  0
  -19.7868   -4.4425  -23.2710 H   0  0  0  0  0  0
  -27.2440   -1.9425  -25.7710 O   0  0  0  0  0  0
  -28.1706   -1.7025  -25.7710 H   0  0  0  0  0  0
  -27.2440   -2.8997  -25.7710 H   0  0  0  0  0  0
  -29.7440   -3.9425  -25.7710 O   0  0  0  0  0  0
  -30.3737   -3.4050  -26.2515 H   0  0  0  0  0  0
  -30.2226   -4.2383  -24.9966 H   0  0  0  0  0  0
  -29.7440   -3.9425  -25.7710 O   0  0  0  0  0  0
  -29.5040   -3.9425  -24.8444 H   0  0  0  0  0  0
  -30.7012   -3.9425  -25.7710 H   0  0  0  0  0  0
  -30.7440   -4.9425  -25.2710 O   0  0  0  0  0  0
  -31.2245   -4.3128  -25.8085 H   0  0  0  0  0  0
  -29.9696   -4.4639  -24.9752 H   0  0  0  0  0  0
  -30.7440   -4.9425  -25.2710 O   0  0  0  0  0  0
  -30.2635   -4.3128  -24.7335 H   0  0  0  0  0  0
  -31.5184   -4.4639  -25.5668 H   0  0  0  0  0  0
  -15.7440   -9.9425  -28.7710 O   0  0  0  0  0  0
  -14.8743   -9.5533  -28.6788 H   0  0  0  0  0  0
  -16.2226   -9.6467  -27.9966 H   0  0  0  0  0  0
  -15.7440   -9.9425  -28.7710 O   0  0  0  0  0  0
  -16.2245   -9.3128  -29.3085 H   0  0  0  0  0  0
  -14.9696   -9.4639  -28.4752 H   0  0  0  0  0  0
  -15.7440   -9.9425  -28.7710 O   0  0  0  0  0  0
  -15.1143   -9.4050  -28.2905 H   0  0  0  0  0  0
  -15.2654  -10.2383  -29.5454 H   0  0  0  0  0  0
  -19.2440   -6.9425  -31.7710 O   0  0  0  0  0  0
  -18.6143   -6.4050  -31.2905 H   0  0  0  0  0  0
  -18.7654   -7.2383  -32.5454 H   0  0  0  0  0  0
  -19.2440   -6.9425  -31.7710 O   0  0  0  0  0  0
  -19.1518   -7.8122  -31.3818 H   0  0  0  0  0  0
  -18.4696   -6.4639  -31.4752 H   0  0  0  0  0  0
  -19.2440   -6.9425  -31.7710 O   0  0  0  0  0  0
  -19.7245   -6.3128  -32.3085 H   0  0  0  0  0  0
  -18.4696   -6.4639  -31.4752 H   0  0  0  0  0  0
  -18.2440   -7.9425  -31.7710 O   0  0  0  0  0  0
  -18.7245   -7.3128  -32.3085 H   0  0  0  0  0  0
  -17.4696   -7.4639  -31.4752 H   0  0  0  0  0  0
  -18.2440   -7.9425  -31.7710 O   0  0  0  0  0  0
  -17.8548   -7.8503  -32.6407 H   0  0  0  0  0  0
  -17.9482   -7.1681  -31.2924 H   0  0  0  0  0  0
  -18.2440   -7.9425  -31.7710 O   0  0  0  0  0  0
  -18.1518   -7.0728  -31.3818 H   0  0  0  0  0  0
  -17.4696   -8.4211  -31.4752 H   0  0  0  0  0  0
  -18.2440   -7.9425  -31.7710 O   0  0  0  0  0  0
  -17.3174   -8.1825  -31.7710 H   0  0  0  0  0  0
  -18.2440   -6.9853  -31.7710 H   0  0  0  0  0  0
  -28.7440   -2.9425  -27.2710 O   0  0  0  0  0  0
  -29.6706   -3.1825  -27.2710 H   0  0  0  0  0  0
  -28.7440   -1.9853  -27.2710 H   0  0  0  0  0  0
  -20.7440   -8.4425  -35.2710 O   0  0  0  0  0  0
  -21.3737   -7.9050  -34.7905 H   0  0  0  0  0  0
  -21.2226   -8.7383  -36.0454 H   0  0  0  0  0  0
  -20.7440   -8.4425  -35.2710 O   0  0  0  0  0  0
  -20.8362   -9.3122  -34.8818 H   0  0  0  0  0  0
  -21.5184   -7.9639  -34.9752 H   0  0  0  0  0  0
  -20.7440   -8.4425  -35.2710 O   0  0  0  0  0  0
  -20.2635   -7.8128  -35.8085 H   0  0  0  0  0  0
  -21.5184   -7.9639  -34.9752 H   0  0  0  0  0  0
  -20.7440   -6.9425  -34.2710 O   0  0  0  0  0  0
  -20.2635   -7.5722  -33.7335 H   0  0  0  0  0  0
  -21.5184   -7.4211  -34.5668 H   0  0  0  0  0  0
  -20.7440   -6.9425  -34.2710 O   0  0  0  0  0  0
  -21.3737   -7.4800  -34.7515 H   0  0  0  0  0  0
  -21.2226   -6.6467  -33.4966 H   0  0  0  0  0  0
  -20.7440   -6.9425  -34.2710 O   0  0  0  0  0  0
  -21.6137   -7.3317  -34.3632 H   0  0  0  0  0  0
  -20.2654   -7.2383  -35.0454 H   0  0  0  0  0  0
  -20.7440   -6.9425  -34.2710 O   0  0  0  0  0  0
  -20.8362   -6.0728  -34.6602 H   0  0  0  0  0  0
  -21.5184   -7.4211  -34.5668 H   0  0  0  0  0  0
  -12.2440   -4.4425  -18.2710 O   0  0  0  0  0  0
  -11.8548   -4.3503  -17.4013 H   0  0  0  0  0  0
  -11.9482   -3.6681  -18.7496 H   0  0  0  0  0  0
  -12.2440   -4.4425  -18.2710 O   0  0  0  0  0  0
  -11.6143   -3.9050  -18.7515 H   0  0  0  0  0  0
  -11.7654   -4.7383  -17.4966 H   0  0  0  0  0  0
  -12.2440   -4.4425  -18.2710 O   0  0  0  0  0  0
  -11.8548   -4.3503  -19.1407 H   0  0  0  0  0  0
  -11.9482   -3.6681  -17.7924 H   0  0  0  0  0  0
  -12.2440   -4.4425  -18.2710 O   0  0  0  0  0  0
  -11.6143   -4.9800  -17.7905 H   0  0  0  0  0  0
  -11.7654   -4.1467  -19.0454 H   0  0  0  0  0  0
  -12.2440   -4.4425  -18.2710 O   0  0  0  0  0  0
  -12.1518   -3.5728  -18.6602 H   0  0  0  0  0  0
  -11.4696   -4.9211  -18.5668 H   0  0  0  0  0  0
  -20.7440   -8.4425  -33.7710 O   0  0  0  0  0  0
  -20.8362   -9.3122  -34.1602 H   0  0  0  0  0  0
  -21.5184   -7.9639  -34.0668 H   0  0  0  0  0  0
  -20.7440   -8.4425  -33.7710 O   0  0  0  0  0  0
  -21.3737   -7.9050  -34.2515 H   0  0  0  0  0  0
  -21.2226   -8.7383  -32.9966 H   0  0  0  0  0  0
  -20.7440   -8.4425  -33.7710 O   0  0  0  0  0  0
  -20.2635   -7.8128  -33.2335 H   0  0  0  0  0  0
  -21.5184   -7.9639  -34.0668 H   0  0  0  0  0  0
  -19.7440   -6.9425  -25.7710 O   0  0  0  0  0  0
  -19.2065   -6.4620  -25.1413 H   0  0  0  0  0  0
  -20.0398   -7.7169  -25.2924 H   0  0  0  0  0  0
  -19.7440   -6.9425  -25.7710 O   0  0  0  0  0  0
  -19.7440   -7.8691  -26.0110 H   0  0  0  0  0  0
  -19.7440   -6.9425  -24.8138 H   0  0  0  0  0  0
  -19.7440   -6.9425  -25.7710 O   0  0  0  0  0  0
  -20.2815   -6.4620  -25.1413 H   0  0  0  0  0  0
  -19.4482   -7.7169  -25.2924 H   0  0  0  0  0  0
  -19.7440   -6.9425  -25.7710 O   0  0  0  0  0  0
  -18.8743   -7.3317  -25.6788 H   0  0  0  0  0  0
  -20.2226   -7.2383  -24.9966 H   0  0  0  0  0  0
  -30.2440    1.5575  -39.7710 O   0  0  0  0  0  0
  -30.6332    1.4653  -38.9013 H   0  0  0  0  0  0
  -30.5398    0.7831  -40.2496 H   0  0  0  0  0  0
  -30.2440    1.5575  -39.7710 O   0  0  0  0  0  0
  -30.7815    1.0770  -39.1413 H   0  0  0  0  0  0
  -29.9482    2.3319  -39.2924 H   0  0  0  0  0  0
  -30.2440    1.5575  -39.7710 O   0  0  0  0  0  0
  -30.8737    2.0950  -40.2515 H   0  0  0  0  0  0
  -30.7226    1.2617  -38.9966 H   0  0  0  0  0  0
  -19.7440   -8.4425  -26.2710 O   0  0  0  0  0  0
  -19.7440   -7.5159  -26.5110 H   0  0  0  0  0  0
  -19.7440   -8.4425  -25.3138 H   0  0  0  0  0  0
  -19.7440   -8.4425  -26.2710 O   0  0  0  0  0  0
  -19.9840   -8.4425  -25.3444 H   0  0  0  0  0  0
  -18.7868   -8.4425  -26.2710 H   0  0  0  0  0  0
  -19.7440   -8.4425  -26.2710 O   0  0  0  0  0  0
  -19.7440   -9.3691  -26.5110 H   0  0  0  0  0  0
  -19.7440   -8.4425  -25.3138 H   0  0  0  0  0  0
  -18.2440   -7.4425  -25.2710 O   0  0  0  0  0  0
  -19.1137   -7.8317  -25.1788 H   0  0  0  0  0  0
  -17.7654   -7.7383  -24.4966 H   0  0  0  0  0  0
  -18.2440   -7.4425  -25.2710 O   0  0  0  0  0  0
  -18.7815   -7.9230  -24.6413 H   0  0  0  0  0  0
  -17.9482   -6.6681  -24.7924 H   0  0  0  0  0  0
  -18.2440   -7.4425  -25.2710 O   0  0  0  0  0  0
  -18.3362   -6.5728  -24.8818 H   0  0  0  0  0  0
  -19.0184   -7.9211  -24.9752 H   0  0  0  0  0  0
  -18.2440   -7.4425  -25.2710 O   0  0  0  0  0  0
  -17.3743   -7.8317  -25.1788 H   0  0  0  0  0  0
  -18.7226   -7.7383  -24.4966 H   0  0  0  0  0  0
  -18.2440   -7.4425  -25.2710 O   0  0  0  0  0  0
  -18.8737   -6.9050  -25.7515 H   0  0  0  0  0  0
  -18.7226   -7.7383  -24.4966 H   0  0  0  0  0  0
  -29.2440   -7.4425  -18.7710 O   0  0  0  0  0  0
  -28.7635   -6.8128  -18.2335 H   0  0  0  0  0  0
  -30.0184   -6.9639  -19.0668 H   0  0  0  0  0  0
  -29.2440   -7.4425  -18.7710 O   0  0  0  0  0  0
  -29.6332   -7.3503  -17.9013 H   0  0  0  0  0  0
  -29.5398   -6.6681  -19.2496 H   0  0  0  0  0  0
  -29.2440   -7.4425  -18.7710 O   0  0  0  0  0  0
  -29.8737   -6.9050  -19.2515 H   0  0  0  0  0  0
  -29.7226   -7.7383  -17.9966 H   0  0  0  0  0  0
  -29.2440   -7.4425  -18.7710 O   0  0  0  0  0  0
  -30.1137   -7.0533  -18.8632 H   0  0  0  0  0  0
  -28.7654   -7.1467  -19.5454 H   0  0  0  0  0  0
  -29.2440   -7.4425  -18.7710 O   0  0  0  0  0  0
  -29.3362   -8.3122  -19.1602 H   0  0  0  0  0  0
  -30.0184   -6.9639  -19.0668 H   0  0  0  0  0  0
  -29.7440    2.5575  -38.2710 O   0  0  0  0  0  0
  -30.3737    2.0200  -37.7905 H   0  0  0  0  0  0
  -30.2226    2.8533  -39.0454 H   0  0  0  0  0  0
  -29.7440    2.5575  -38.2710 O   0  0  0  0  0  0
  -30.1332    2.4653  -39.1407 H   0  0  0  0  0  0
  -30.0398    1.7831  -37.7924 H   0  0  0  0  0  0
  -29.7440    2.5575  -38.2710 O   0  0  0  0  0  0
  -30.6706    2.7975  -38.2710 H   0  0  0  0  0  0
  -29.7440    1.6003  -38.2710 H   0  0  0  0  0  0
  -29.7440    2.5575  -38.2710 O   0  0  0  0  0  0
  -29.2635    1.9278  -37.7335 H   0  0  0  0  0  0
  -30.5184    2.0789  -38.5668 H   0  0  0  0  0  0
  -30.7440  -10.9425  -26.2710 O   0  0  0  0  0  0
  -31.2815  -11.4230  -26.9007 H   0  0  0  0  0  0
  -30.4482  -10.1681  -26.7496 H   0  0  0  0  0  0
  -30.7440  -10.9425  -26.2710 O   0  0  0  0  0  0
  -30.6518  -10.0728  -26.6602 H   0  0  0  0  0  0
  -29.9696  -11.4211  -26.5668 H   0  0  0  0  0  0
  -30.7440  -10.9425  -26.2710 O   0  0  0  0  0  0
  -31.6137  -10.5533  -26.3632 H   0  0  0  0  0  0
  -30.2654  -10.6467  -27.0454 H   0  0  0  0  0  0
  -30.7440  -10.9425  -26.2710 O   0  0  0  0  0  0
  -30.2065  -11.4230  -26.9007 H   0  0  0  0  0  0
  -31.0398  -10.1681  -26.7496 H   0  0  0  0  0  0
  -30.7440  -10.9425  -26.2710 O   0  0  0  0  0  0
  -30.3548  -10.8503  -27.1407 H   0  0  0  0  0  0
  -30.4482  -10.1681  -25.7924 H   0  0  0  0  0  0
  -24.7440   -4.4425  -19.7710 O   0  0  0  0  0  0
  -25.1332   -4.3503  -20.6407 H   0  0  0  0  0  0
  -25.0398   -3.6681  -19.2924 H   0  0  0  0  0  0
  -24.7440   -4.4425  -19.7710 O   0  0  0  0  0  0
  -25.6706   -4.6825  -19.7710 H   0  0  0  0  0  0
  -24.7440   -3.4853  -19.7710 H   0  0  0  0  0  0
  -24.7440   -4.4425  -19.7710 O   0  0  0  0  0  0
  -24.8362   -3.5728  -19.3818 H   0  0  0  0  0  0
  -25.5184   -4.9211  -19.4752 H   0  0  0  0  0  0
  -24.7440   -4.4425  -19.7710 O   0  0  0  0  0  0
  -25.1332   -4.3503  -18.9013 H   0  0  0  0  0  0
  -25.0398   -3.6681  -20.2496 H   0  0  0  0  0  0
  -24.7440   -3.4425  -21.2710 O   0  0  0  0  0  0
  -25.1332   -3.3503  -20.4013 H   0  0  0  0  0  0
  -25.0398   -2.6681  -21.7496 H   0  0  0  0  0  0
  -24.7440   -3.4425  -21.2710 O   0  0  0  0  0  0
  -25.2815   -2.9620  -20.6413 H   0  0  0  0  0  0
  -24.4482   -4.2169  -20.7924 H   0  0  0  0  0  0
  -24.7440   -3.4425  -21.2710 O   0  0  0  0  0  0
  -24.2065   -3.9230  -20.6413 H   0  0  0  0  0  0
  -25.0398   -2.6681  -20.7924 H   0  0  0  0  0  0
  -24.7440   -3.4425  -21.2710 O   0  0  0  0  0  0
  -25.3737   -3.9800  -21.7515 H   0  0  0  0  0  0
  -25.2226   -3.1467  -20.4966 H   0  0  0  0  0  0
  -16.2440   -8.9425  -39.2710 O   0  0  0  0  0  0
  -16.2440   -8.0159  -39.0310 H   0  0  0  0  0  0
  -16.2440   -8.9425  -40.2282 H   0  0  0  0  0  0
  -16.2440   -8.9425  -39.2710 O   0  0  0  0  0  0
  -16.3362   -8.0728  -38.8818 H   0  0  0  0  0  0
  -17.0184   -9.4211  -38.9752 H   0  0  0  0  0  0
  -16.7440   -3.9425  -25.2710 O   0  0  0  0  0  0
  -15.8174   -4.1825  -25.2710 H   0  0  0  0  0  0
  -16.7440   -2.9853  -25.2710 H   0  0  0  0  0  0
  -16.7440   -3.9425  -25.2710 O   0  0  0  0  0  0
  -16.7440   -3.0159  -25.5110 H   0  0  0  0  0  0
  -16.7440   -3.9425  -24.3138 H   0  0  0  0  0  0
  -17.7440   -3.4425  -25.2710 O   0  0  0  0  0  0
  -17.1143   -2.9050  -25.7515 H   0  0  0  0  0  0
  -17.2654   -3.7383  -24.4966 H   0  0  0  0  0  0
  -17.7440   -3.4425  -25.2710 O   0  0  0  0  0  0
  -17.3548   -3.3503  -24.4013 H   0  0  0  0  0  0
  -17.4482   -2.6681  -25.7496 H   0  0  0  0  0  0
  -17.7440   -3.4425  -25.2710 O   0  0  0  0  0  0
  -17.6518   -4.3122  -25.6602 H   0  0  0  0  0  0
  -16.9696   -2.9639  -25.5668 H   0  0  0  0  0  0
  -26.7440   -8.4425  -39.2710 O   0  0  0  0  0  0
  -26.6518   -7.5728  -38.8818 H   0  0  0  0  0  0
  -25.9696   -8.9211  -38.9752 H   0  0  0  0  0  0
  -26.7440   -8.4425  -39.2710 O   0  0  0  0  0  0
  -26.2635   -7.8128  -38.7335 H   0  0  0  0  0  0
  -27.5184   -7.9639  -39.5668 H   0  0  0  0  0  0
  -20.7440   -9.4425  -37.2710 O   0  0  0  0  0  0
  -21.1332   -9.3503  -36.4013 H   0  0  0  0  0  0
  -21.0398   -8.6681  -37.7496 H   0  0  0  0  0  0
  -20.7440   -9.4425  -37.2710 O   0  0  0  0  0  0
  -20.8362   -8.5728  -37.6602 H   0  0  0  0  0  0
  -21.5184   -9.9211  -37.5668 H   0  0  0  0  0  0
  -20.7440   -9.4425  -37.2710 O   0  0  0  0  0  0
  -21.2245   -8.8128  -37.8085 H   0  0  0  0  0  0
  -19.9696   -8.9639  -36.9752 H   0  0  0  0  0  0
  -20.7440   -9.4425  -37.2710 O   0  0  0  0  0  0
  -20.2065   -9.9230  -37.9007 H   0  0  0  0  0  0
  -21.0398   -8.6681  -37.7496 H   0  0  0  0  0  0
  -31.2440   -9.4425  -25.7710 O   0  0  0  0  0  0
  -30.8548   -9.5347  -26.6407 H   0  0  0  0  0  0
  -30.9482  -10.2169  -25.2924 H   0  0  0  0  0  0
  -31.2440   -9.4425  -25.7710 O   0  0  0  0  0  0
  -31.0040   -9.4425  -26.6976 H   0  0  0  0  0  0
  -32.2012   -9.4425  -25.7710 H   0  0  0  0  0  0
  -31.2440   -9.4425  -25.7710 O   0  0  0  0  0  0
  -30.6143   -8.9050  -25.2905 H   0  0  0  0  0  0
  -30.7654   -9.7383  -26.5454 H   0  0  0  0  0  0
  -31.2440   -9.4425  -25.7710 O   0  0  0  0  0  0
  -32.1137   -9.8317  -25.8632 H   0  0  0  0  0  0
  -30.7654   -9.7383  -26.5454 H   0  0  0  0  0  0
  -28.2440   -5.4425  -24.2710 O   0  0  0  0  0  0
  -27.7635   -4.8128  -24.8085 H   0  0  0  0  0  0
  -29.0184   -4.9639  -23.9752 H   0  0  0  0  0  0
  -28.2440   -5.4425  -24.2710 O   0  0  0  0  0  0
  -28.8737   -4.9050  -23.7905 H   0  0  0  0  0  0
  -28.7226   -5.7383  -25.0454 H   0  0  0  0  0  0
  -28.2440   -5.4425  -24.2710 O   0  0  0  0  0  0
  -28.7245   -4.8128  -23.7335 H   0  0  0  0  0  0
  -27.4696   -4.9639  -24.5668 H   0  0  0  0  0  0
  -28.2440   -5.4425  -24.2710 O   0  0  0  0  0  0
  -28.3362   -6.3122  -23.8818 H   0  0  0  0  0  0
  -29.0184   -4.9639  -23.9752 H   0  0  0  0  0  0
  -30.2440   -0.4425  -40.2710 O   0  0  0  0  0  0
  -30.8737   -0.9800  -40.7515 H   0  0  0  0  0  0
  -30.7226   -0.1467  -39.4966 H   0  0  0  0  0  0
  -30.2440   -0.4425  -40.2710 O   0  0  0  0  0  0
  -30.8737    0.0950  -39.7905 H   0  0  0  0  0  0
  -30.7226   -0.7383  -41.0454 H   0  0  0  0  0  0
  -18.2440   -9.4425  -25.2710 O   0  0  0  0  0  0
  -18.7245   -8.8128  -24.7335 H   0  0  0  0  0  0
  -17.4696   -8.9639  -25.5668 H   0  0  0  0  0  0
  -18.2440   -9.4425  -25.2710 O   0  0  0  0  0  0
  -17.7635   -8.8128  -25.8085 H   0  0  0  0  0  0
  -19.0184   -8.9639  -24.9752 H   0  0  0  0  0  0
  -18.2440   -9.4425  -25.2710 O   0  0  0  0  0  0
  -19.1137   -9.0533  -25.1788 H   0  0  0  0  0  0
  -17.7654   -9.1467  -24.4966 H   0  0  0  0  0  0
  -18.2440   -9.4425  -25.2710 O   0  0  0  0  0  0
  -18.8737   -8.9050  -24.7905 H   0  0  0  0  0  0
  -18.7226   -9.7383  -26.0454 H   0  0  0  0  0  0
  -18.2440   -9.4425  -25.2710 O   0  0  0  0  0  0
  -18.3362  -10.3122  -24.8818 H   0  0  0  0  0  0
  -19.0184   -8.9639  -24.9752 H   0  0  0  0  0  0
  1  2  1  0  0  0
  1  3  1  0  0  0
  4  5  1  0  0  0
  4  6  1  0  0  0
  7  8  1  0  0  0
  7  9  1  0  0  0
 10 11  1  0  0  0
 10 12  1  0  0  0
 13 14  1  0  0  0
 13 15  1  0  0  0
 16 17  1  0  0  0
 16 18  1  0  0  0
 19 20  1  0  0  0
 19 21  1  0  0  0
 22 23  1  0  0  0
 22 24  1  0  0  0
 25 26  1  0  0  0
 25 27  1  0  0  0
 28 29  1  0  0  0
 28 30  1  0  0  0
 31 32  1  0  0  0
 31 33  1  0  0  0
 34 35  1  0  0  0
 34 36  1  0  0  0
 37 38  1  0  0  0
 37 39  1  0  0  0
 40 41  1  0  0  0
 40 42  1  0  0  0
 43 44  1  0  0  0
 43 45  1  0  0  0
 46 47  1  0  0  0
 46 48  1  0  0  0
 49 50  1  0  0  0
 49 51  1  0  0  0
 52 53  1  0  0  0
 52 54  1  0  0  0
 55 56  1  0  0  0
 55 57  1  0  0  0
 58 59  1  0  0  0
 58 60  1  0  0  0
 61 62  1  0  0  0
 61 63  1  0  0  0
 64 65  1  0  0  0
 64 66  1  0  0  0
 67 68  1  0  0  0
 67 69  1  0  0  0
 70 71  1  0  0  0
 70 72  1  0  0  0
 73 74  1  0  0  0
 73 75  1  0  0  0
 76 77  1  0  0  0
 76 78  1  0  0  0
 79 80  1  0  0  0
 79 81  1  0  0  0
 82 83  1  0  0  0
 82 84  1  0  0  0
 85 86  1  0  0  0
 85 87  1  0  0  0
 88 89  1  0  0  0
 88 90  1  0  0  0
 91 92  1  0  0  0
 91 93  1  0  0  0
 94 95  1  0  0  0
 94 96  1  0  0  0
 97 98  1  0  0  0
 97 99  1  0  0  0
100101  1  0  0  0
100102  1  0  0  0
103104  1  0  0  0
103105  1  0  0  0
106107  1  0  0  0
106108  1  0  0  0
109110  1  0  0  0
109111  1  0  0  0
112113  1  0  0  0
112114  1  0  0  0
115116  1  0  0  0
115117  1  0  0  0
118119  1  0  0  0
118120  1  0  0  0
121122  1  0  0  0
121123  1  0  0  0
124125  1  0  0  0
124126  1  0  0  0
127128  1  0  0  0
127129  1  0  0  0
130131  1  0  0  0
130132  1  0  0  0
133134  1  0  0  0
133135  1  0  0  0
136137  1  0  0  0
136138  1  0  0  0
139140  1  0  0  0
139141  1  0  0  0
142143  1  0  0  0
142144  1  0  0  0
145146  1  0  0  0
145147  1  0  0  0
148149  1  0  0  0
148150  1  0  0  0
151152  1  0  0  0
151153  1  0  0  0
154155  1  0  0  0
154156  1  0  0  0
157158  1  0  0  0
157159  1  0  0  0
160161  1  0  0  0
160162  1  0  0  0
163164  1  0  0  0
163165  1  0  0  0
166167  1  0  0  0
166168  1  0  0  0
169170  1  0  0  0
169171  1  0  0  0
172173  1  0  0  0
172174  1  0  0  0
175176  1  0  0  0
175177  1  0  0  0
178179  1  0  0  0
178180  1  0  0  0
181182  1  0  0  0
181183  1  0  0  0
184185  1  0  0  0
184186  1  0  0  0
187188  1  0  0  0
187189  1  0  0  0
190191  1  0  0  0
190192  1  0  0  0
193194  1  0  0  0
193195  1  0  0  0
196197  1  0  0  0
196198  1  0  0  0
199200  1  0  0  0
199201  1  0  0  0
202203  1  0  0  0
202204  1  0  0  0
205206  1  0  0  0
205207  1  0  0  0
208209  1  0  0  0
208210  1  0  0  0
211212  1  0  0  0
211213  1  0  0  0
214215  1  0  0  0
214216  1  0  0  0
217218  1  0  0  0
217219  1  0  0  0
220221  1  0  0  0
220222  1  0  0  0
223224  1  0  0  0
223225  1  0  0  0
226227  1  0  0  0
226228  1  0  0  0
229230  1  0  0  0
229231  1  0  0  0
232233  1  0  0  0
232234  1  0  0  0
235236  1  0  0  0
235237  1  0  0  0
238239  1  0  0  0
238240  1  0  0  0
241242  1  0  0  0
241243  1  0  0  0
244245  1  0  0  0
244246  1  0  0  0
247248  1  0  0  0
247249  1  0  0  0
250251  1  0  0  0
250252  1  0  0  0
253254  1  0  0  0
253255  1  0  0  0
256257  1  0  0  0
256258  1  0  0  0
259260  1  0  0  0
259261  1  0  0  0
262263  1  0  0  0
262264  1  0  0  0
265266  1  0  0  0
265267  1  0  0  0
268269  1  0  0  0
268270  1  0  0  0
271272  1  0  0  0
271273  1  0  0  0
274275  1  0  0  0
274276  1  0  0  0
277278  1  0  0  0
277279  1  0  0  0
280281  1  0  0  0
280282  1  0  0  0
283284  1  0  0  0
283285  1  0  0  0
286287  1  0  0  0
286288  1  0  0  0
289290  1  0  0  0
289291  1  0  0  0
292293  1  0  0  0
292294  1  0  0  0
295296  1  0  0  0
295297  1  0  0  0
298299  1  0  0  0
298300  1  0  0  0
301302  1  0  0  0
301303  1  0  0  0
304305  1  0  0  0
304306  1  0  0  0
307308  1  0  0  0
307309  1  0  0  0
310311  1  0  0  0
310312  1  0  0  0
313314  1  0  0  0
313315  1  0  0  0
316317  1  0  0  0
316318  1  0  0  0
319320  1  0  0  0
319321  1  0  0  0
322323  1  0  0  0
322324  1  0  0  0
325326  1  0  0  0
325327  1  0  0  0
328329  1  0  0  0
328330  1  0  0  0
331332  1  0  0  0
331333  1  0  0  0
334335  1  0  0  0
334336  1  0  0  0
337338  1  0  0  0
337339  1  0  0  0
340341  1  0  0  0
340342  1  0  0  0
343344  1  0  0  0
343345  1  0  0  0
346347  1  0  0  0
346348  1  0  0  0
349350  1  0  0  0
349351  1  0  0  0
352353  1  0  0  0
352354  1  0  0  0
355356  1  0  0  0
355357  1  0  0  0
358359  1  0  0  0
358360  1  0  0  0
361362  1  0  0  0
361363  1  0  0  0
364365  1  0  0  0
364366  1  0  0  0
367368  1  0  0  0
367369  1  0  0  0
370371  1  0  0  0
370372  1  0  0  0
373374  1  0  0  0
373375  1  0  0  0
376377  1  0  0  0
376378  1  0  0  0
379380  1  0  0  0
379381  1  0  0  0
382383  1  0  0  0
382384  1  0  0  0
385386  1  0  0  0
385387  1  0  0  0
388389  1  0  0  0
388390  1  0  0  0
391392  1  0  0  0
391393  1  0  0  0
394395  1  0  0  0
394396  1  0  0  0
397398  1  0  0  0
397399  1  0  0  0
400401  1  0  0  0
400402  1  0  0  0
403404  1  0  0  0
403405  1  0  0  0
406407  1  0  0  0
406408  1  0  0  0
409410  1  0  0  0
409411  1  0  0  0
412413  1  0  0  0
412414  1  0  0  0
415416  1  0  0  0
415417  1  0  0  0
418419  1  0  0  0
418420  1  0  0  0
421422  1  0  0  0
421423  1  0  0  0
424425  1  0  0  0
424426  1  0  0  0
427428  1  0  0  0
427429  1  0  0  0
430431  1  0  0  0
430432  1  0  0  0
433434  1  0  0  0
433435  1  0  0  0
436437  1  0  0  0
436438  1  0  0  0
439440  1  0  0  0
439441  1  0  0  0
442443  1  0  0  0
442444  1  0  0  0
M  END
> <s_m_entry_id>
1697

> <s_m_entry_name>
SZMAP_Mpro_8IGO.6_merged148

> <s_m_Source_Path>
C:\Users\ifige\Documents\lab_projects\Mpro\szmap\8IGO\SZMAP_8IGO

> <s_m_Source_File>
SZMAP_Mpro_8IGO.mae

> <i_m_Source_File_Index>
6

> <szmap_neut_diff_free_energy>
-7.665

> <szmap_vdw>
7.657

> <szmap_order>
0.38

> <szmap_probability>
0.194

$$$$
